###
### Created by PolyChef-cpp17 on Tue Feb 11 15:00:02 2025
###

@<TRIPOS>MOLECULE
NO_INFO
3950 3949 1 0 0
SMALL
USER_CHARGES


@<TRIPOS>ATOM
      1 C         -60.7202  -13.7713    0.6551 C.3       0        0    0.0000
      2 C         -60.1595  -12.3541    0.4938 C.3       0        0    0.0000
      3 H         -60.1835  -14.2997    1.4528 H         0        0    0.0000
      4 H         -60.5610  -14.3459   -0.2658 H         0        0    0.0000
      5 H         -60.8149  -11.7620   -0.1569 H         0        0    0.0000
      6 H         -60.1375  -11.8454    1.4655 H         0        0    0.0000
      7 C         -58.7129  -12.3527   -0.1102 C.3       1        0    0.0000
      8 C         -58.0661  -13.7416   -0.0718 C.3       1        0    0.0000
      9 H         -58.7616  -11.9889   -1.1440 H         1        0    0.0000
     10 H         -58.0976  -11.6357    0.4474 H         1        0    0.0000
     11 H         -57.8953  -14.0485    0.9675 H         1        0    0.0000
     12 H         -58.7430  -14.4841   -0.5123 H         1        0    0.0000
     13 C         -56.7011  -13.7829   -0.8416 C.3       2        0    0.0000
     14 C         -55.9450  -15.0964   -0.6136 C.3       2        0    0.0000
     15 H         -56.8945  -13.6411   -1.9122 H         2        0    0.0000
     16 H         -56.0865  -12.9339   -0.5174 H         2        0    0.0000
     17 H         -55.8255  -15.2799    0.4614 H         2        0    0.0000
     18 H         -56.5236  -15.9379   -1.0144 H         2        0    0.0000
     19 C         -54.5289  -15.0912   -1.2858 C.3       3        0    0.0000
     20 C         -53.4574  -15.7194   -0.3878 C.3       3        0    0.0000
     21 H         -54.5872  -15.6336   -2.2376 H         3        0    0.0000
     22 H         -54.2566  -14.0566   -1.5289 H         3        0    0.0000
     23 H         -53.3709  -15.1526    0.5475 H         3        0    0.0000
     24 H         -53.7491  -16.7402   -0.1118 H         3        0    0.0000
     25 C         -52.0527  -15.7656   -1.0823 C.3       4        0    0.0000
     26 C         -50.9940  -14.9761   -0.3045 C.3       4        0    0.0000
     27 H         -51.7423  -16.8130   -1.1829 H         4        0    0.0000
     28 H         -52.1478  -15.3661   -2.0995 H         4        0    0.0000
     29 H         -51.1032  -13.9029   -0.5039 H         4        0    0.0000
     30 H         -51.1401  -15.1126    0.7742 H         4        0    0.0000
     31 C         -49.5351  -15.4132   -0.6761 C.3       5        0    0.0000
     32 C         -49.0431  -14.7545   -1.9696 C.3       5        0    0.0000
     33 H         -48.8665  -15.1561    0.1548 H         5        0    0.0000
     34 H         -49.5078  -16.5053   -0.7761 H         5        0    0.0000
     35 H         -49.8980  -14.4670   -2.5941 H         5        0    0.0000
     36 H         -48.4977  -13.8313   -1.7378 H         5        0    0.0000
     37 C         -48.1069  -15.6997   -2.7988 C.3       6        0    0.0000
     38 C         -46.8452  -14.9820   -3.2906 C.3       6        0    0.0000
     39 H         -47.8317  -16.5600   -2.1760 H         6        0    0.0000
     40 H         -48.6709  -16.0962   -3.6521 H         6        0    0.0000
     41 H         -47.0673  -14.4125   -4.2016 H         6        0    0.0000
     42 H         -46.5083  -14.2565   -2.5398 H         6        0    0.0000
     43 C         -45.6734  -15.9791   -3.5912 C.3       7        0    0.0000
     44 C         -44.3359  -15.2590   -3.7951 C.3       7        0    0.0000
     45 H         -45.5941  -16.6920   -2.7611 H         7        0    0.0000
     46 H         -45.9264  -16.5629   -4.4849 H         7        0    0.0000
     47 H         -44.4606  -14.4256   -4.4974 H         7        0    0.0000
     48 H         -43.9945  -14.8241   -2.8475 H         7        0    0.0000
     49 C         -43.2223  -16.2177   -4.3412 C.3       8        0    0.0000
     50 C         -42.0995  -15.4567   -5.0549 C.3       8        0    0.0000
     51 H         -42.8118  -16.7959   -3.5042 H         8        0    0.0000
     52 H         -43.6825  -16.9397   -5.0272 H         8        0    0.0000
     53 H         -42.5072  -14.5736   -5.5623 H         8        0    0.0000
     54 H         -41.3691  -15.0904   -4.3230 H         8        0    0.0000
     55 C         -41.3555  -16.3468   -6.1093 C.3       9        0    0.0000
     56 C         -39.8375  -16.1377   -6.0783 C.3       9        0    0.0000
     57 H         -41.5943  -17.3997   -5.9148 H         9        0    0.0000
     58 H         -41.7469  -16.1142   -7.1075 H         9        0    0.0000
     59 H         -39.5288  -15.7684   -5.0925 H         9        0    0.0000
     60 H         -39.3229  -17.0943   -6.2318 H         9        0    0.0000
     61 C         -39.3551  -15.1232   -7.1717 C.3      10        0    0.0000
     62 C         -37.8309  -15.1243   -7.3330 C.3      10        0    0.0000
     63 H         -39.8344  -15.3767   -8.1254 H        10        0    0.0000
     64 H         -39.7039  -14.1190   -6.9009 H        10        0    0.0000
     65 H         -37.4155  -16.0747   -6.9755 H        10        0    0.0000
     66 H         -37.5649  -15.0436   -8.3942 H        10        0    0.0000
     67 C         -37.1498  -13.9490   -6.5505 C.3      11        0    0.0000
     68 C         -35.6200  -14.0210   -6.6103 C.3      11        0    0.0000
     69 H         -37.4983  -12.9967   -6.9692 H        11        0    0.0000
     70 H         -37.4872  -13.9766   -5.5070 H        11        0    0.0000
     71 H         -35.3059  -14.6607   -7.4444 H        11        0    0.0000
     72 H         -35.2038  -13.0245   -6.8035 H        11        0    0.0000
     73 C         -34.9992  -14.5793   -5.2836 C.3      12        0    0.0000
     74 C         -33.6264  -15.2219   -5.5101 C.3      12        0    0.0000
     75 H         -34.9159  -13.7592   -4.5597 H        12        0    0.0000
     76 H         -35.6910  -15.3125   -4.8506 H        12        0    0.0000
     77 H         -33.0203  -15.1454   -4.5988 H        12        0    0.0000
     78 H         -33.7423  -16.2920   -5.7223 H        12        0    0.0000
     79 C         -32.8456  -14.5537   -6.6938 C.3      13        0    0.0000
     80 C         -31.8417  -15.5131   -7.3425 C.3      13        0    0.0000
     81 H         -33.5684  -14.2038   -7.4413 H        13        0    0.0000
     82 H         -32.3262  -13.6638   -6.3172 H        13        0    0.0000
     83 H         -31.0407  -15.7554   -6.6331 H        13        0    0.0000
     84 H         -32.3354  -16.4595   -7.5956 H        13        0    0.0000
     85 C         -31.2015  -14.9138   -8.6419 C.3      14        0    0.0000
     86 C         -29.8055  -15.4832   -8.9175 C.3      14        0    0.0000
     87 H         -31.8658  -15.1191   -9.4905 H        14        0    0.0000
     88 H         -31.1493  -13.8227   -8.5395 H        14        0    0.0000
     89 H         -29.0734  -15.0299   -8.2377 H        14        0    0.0000
     90 H         -29.7935  -16.5621   -8.7193 H        14        0    0.0000
     91 C         -29.3440  -15.2356  -10.3951 C.3      15        0    0.0000
     92 C         -27.8752  -15.6137  -10.6159 C.3      15        0    0.0000
     93 H         -29.9871  -15.8159  -11.0683 H        15        0    0.0000
     94 H         -29.5016  -14.1785  -10.6424 H        15        0    0.0000
     95 H         -27.5419  -16.3027   -9.8300 H        15        0    0.0000
     96 H         -27.7627  -16.1449  -11.5691 H        15        0    0.0000
     97 C         -26.9336  -14.3603  -10.6218 C.3      16        0    0.0000
     98 C         -25.4542  -14.7448  -10.5092 C.3      16        0    0.0000
     99 H         -27.1057  -13.7931  -11.5449 H        16        0    0.0000
    100 H         -27.2155  -13.7023   -9.7905 H        16        0    0.0000
    101 H         -25.2210  -15.0460   -9.4804 H        16        0    0.0000
    102 H         -25.2412  -15.6114  -11.1472 H        16        0    0.0000
    103 C         -24.5020  -13.5690  -10.9196 C.3      17        0    0.0000
    104 C         -23.0717  -14.0479  -11.1919 C.3      17        0    0.0000
    105 H         -24.9105  -13.0780  -11.8115 H        17        0    0.0000
    106 H         -24.5014  -12.8187  -10.1193 H        17        0    0.0000
    107 H         -22.9930  -14.4347  -12.2155 H        17        0    0.0000
    108 H         -22.3727  -13.2057  -11.1187 H        17        0    0.0000
    109 C         -22.6199  -15.1680  -10.1925 C.3      18        0    0.0000
    110 C         -21.2658  -15.7757  -10.5747 C.3      18        0    0.0000
    111 H         -22.5693  -14.7416   -9.1829 H        18        0    0.0000
    112 H         -23.3891  -15.9497  -10.1661 H        18        0    0.0000
    113 H         -21.0719  -16.6716   -9.9719 H        18        0    0.0000
    114 H         -21.2808  -16.0986  -11.6231 H        18        0    0.0000
    115 C         -20.0835  -14.7660  -10.3740 C.3      19        0    0.0000
    116 C         -18.8142  -15.2036  -11.1132 C.3      19        0    0.0000
    117 H         -20.4006  -13.7760  -10.7245 H        19        0    0.0000
    118 H         -19.8793  -14.6696   -9.3004 H        19        0    0.0000
    119 H         -18.1409  -15.7301  -10.4254 H        19        0    0.0000
    120 H         -19.0686  -15.9134  -11.9099 H        19        0    0.0000
    121 C         -18.0457  -13.9911  -11.7431 C.3      20        0    0.0000
    122 C         -16.6303  -14.3704  -12.1922 C.3      20        0    0.0000
    123 H         -18.6220  -13.6118  -12.5961 H        20        0    0.0000
    124 H         -18.0018  -13.1791  -11.0067 H        20        0    0.0000
    125 H         -15.9181  -13.5937  -11.8873 H        20        0    0.0000
    126 H         -16.3150  -15.2981  -11.6986 H        20        0    0.0000
    127 C         -16.5317  -14.5653  -13.7445 C.3      21        0    0.0000
    128 C         -15.1826  -15.1539  -14.1715 C.3      21        0    0.0000
    129 H         -17.3485  -15.2208  -14.0712 H        21        0    0.0000
    130 H         -16.6909  -13.5961  -14.2334 H        21        0    0.0000
    131 H         -15.3090  -16.1990  -14.4805 H        21        0    0.0000
    132 H         -14.7948  -14.6124  -15.0433 H        21        0    0.0000
    133 C         -14.1172  -15.0919  -13.0232 C.3      22        0    0.0000
    134 C         -12.8054  -15.7837  -13.4100 C.3      22        0    0.0000
    135 H         -13.9283  -14.0407  -12.7725 H        22        0    0.0000
    136 H         -14.5382  -15.5594  -12.1245 H        22        0    0.0000
    137 H         -12.4601  -16.4223  -12.5875 H        22        0    0.0000
    138 H         -12.9672  -16.4416  -14.2729 H        22        0    0.0000
    139 C         -11.6739  -14.7575  -13.7622 C.3      23        0    0.0000
    140 C         -10.3186  -15.4393  -13.9802 C.3      23        0    0.0000
    141 H         -11.9660  -14.2046  -14.6636 H        23        0    0.0000
    142 H         -11.5989  -14.0219  -12.9518 H        23        0    0.0000
    143 H         -10.2458  -16.3393  -13.3571 H        23        0    0.0000
    144 H         -10.2269  -15.7695  -15.0223 H        23        0    0.0000
    145 C          -9.1159  -14.4922  -13.6424 C.3      24        0    0.0000
    146 C          -7.7826  -15.0373  -14.1660 C.3      24        0    0.0000
    147 H          -9.3131  -13.5028  -14.0735 H        24        0    0.0000
    148 H          -9.0663  -14.3578  -12.5548 H        24        0    0.0000
    149 H          -6.9980  -14.9002  -13.4116 H        24        0    0.0000
    150 H          -7.8619  -16.1166  -14.3456 H        24        0    0.0000
    151 C          -7.3344  -14.3356  -15.4943 C.3      25        0    0.0000
    152 C          -5.9349  -14.7742  -15.9393 C.3      25        0    0.0000
    153 H          -8.0670  -14.5628  -16.2787 H        25        0    0.0000
    154 H          -7.3587  -13.2490  -15.3458 H        25        0    0.0000
    155 H          -5.3159  -13.8945  -16.1551 H        25        0    0.0000
    156 H          -5.4359  -15.3192  -15.1284 H        25        0    0.0000
    157 C          -5.9754  -15.6882  -17.2122 C.3      26        0    0.0000
    158 C          -4.5801  -16.1670  -17.6282 C.3      26        0    0.0000
    159 H          -6.6235  -16.5496  -17.0086 H        26        0    0.0000
    160 H          -6.4419  -15.1301  -18.0335 H        26        0    0.0000
    161 H          -4.5246  -17.2610  -17.5687 H        26        0    0.0000
    162 H          -4.3864  -15.8981  -18.6740 H        26        0    0.0000
    163 C          -3.4499  -15.5542  -16.7312 C.3      27        0    0.0000
    164 C          -2.0728  -16.1497  -17.0444 C.3      27        0    0.0000
    165 H          -3.4319  -14.4672  -16.8784 H        27        0    0.0000
    166 H          -3.7029  -15.7253  -15.6775 H        27        0    0.0000
    167 H          -1.9402  -17.0953  -16.5042 H        27        0    0.0000
    168 H          -1.9989  -16.3847  -18.1135 H        27        0    0.0000
    169 C          -0.9040  -15.1790  -16.6584 C.3      28        0    0.0000
    170 C           0.4692  -15.7426  -17.0403 C.3      28        0    0.0000
    171 H          -1.0664  -14.2147  -17.1557 H        28        0    0.0000
    172 H          -0.9451  -14.9877  -15.5790 H        28        0    0.0000
    173 H           0.4837  -16.8297  -16.8935 H        28        0    0.0000
    174 H           0.6655  -15.5659  -18.1051 H        28        0    0.0000
    175 C           1.6282  -15.1037  -16.2000 C.3      29        0    0.0000
    176 C           3.0089  -15.4001  -16.7956 C.3      29        0    0.0000
    177 H           1.4678  -14.0199  -16.1431 H        29        0    0.0000
    178 H           1.5718  -15.4849  -15.1729 H        29        0    0.0000
    179 H           3.7923  -14.9592  -16.1667 H        29        0    0.0000
    180 H           3.1881  -16.4823  -16.8097 H        29        0    0.0000
    181 C           3.1589  -14.8440  -18.2536 C.3      30        0    0.0000
    182 C           4.5571  -15.0936  -18.8295 C.3      30        0    0.0000
    183 H           2.4000  -15.3142  -18.8912 H        30        0    0.0000
    184 H           2.9417  -13.7687  -18.2460 H        30        0    0.0000
    185 H           4.9086  -14.2022  -19.3637 H        30        0    0.0000
    186 H           5.2715  -15.2761  -18.0171 H        30        0    0.0000
    187 C           4.5858  -16.3152  -19.8115 C.3      31        0    0.0000
    188 C           6.0075  -16.8363  -20.0490 C.3      31        0    0.0000
    189 H           3.9561  -17.1141  -19.4006 H        31        0    0.0000
    190 H           4.1315  -16.0142  -20.7636 H        31        0    0.0000
    191 H           6.2042  -17.7006  -19.4026 H        31        0    0.0000
    192 H           6.1119  -17.1863  -21.0835 H        31        0    0.0000
    193 C           7.0952  -15.7415  -19.7738 C.3      32        0    0.0000
    194 C           8.5195  -16.2943  -19.8956 C.3      32        0    0.0000
    195 H           6.9511  -14.9144  -20.4800 H        32        0    0.0000
    196 H           6.9361  -15.3296  -18.7695 H        32        0    0.0000
    197 H           8.7191  -17.0022  -19.0816 H        32        0    0.0000
    198 H           8.6270  -16.8538  -20.8331 H        32        0    0.0000
    199 C           9.6020  -15.1611  -19.8565 C.3      33        0    0.0000
    200 C          11.0213  -15.7068  -20.0484 C.3      33        0    0.0000
    201 H           9.3727  -14.4260  -20.6379 H        33        0    0.0000
    202 H           9.5280  -14.6344  -18.8970 H        33        0    0.0000
    203 H          11.1307  -16.6636  -19.5230 H        33        0    0.0000
    204 H          11.2066  -15.9078  -21.1108 H        33        0    0.0000
    205 C          12.1154  -14.7143  -19.5236 C.3      34        0    0.0000
    206 C          13.5202  -15.0893  -20.0080 C.3      34        0    0.0000
    207 H          11.8612  -13.7000  -19.8556 H        34        0    0.0000
    208 H          12.0861  -14.7033  -18.4270 H        34        0    0.0000
    209 H          14.2544  -14.3685  -19.6273 H        34        0    0.0000
    210 H          13.8062  -16.0705  -19.6093 H        34        0    0.0000
    211 C          13.6178  -15.1315  -21.5721 C.3      35        0    0.0000
    212 C          15.0543  -15.3521  -22.0587 C.3      35        0    0.0000
    213 H          12.9670  -15.9319  -21.9455 H        35        0    0.0000
    214 H          13.2239  -14.1908  -21.9764 H        35        0    0.0000
    215 H          15.2580  -14.7171  -22.9298 H        35        0    0.0000
    216 H          15.7657  -15.0542  -21.2785 H        35        0    0.0000
    217 C          15.3270  -16.8460  -22.4476 C.3      36        0    0.0000
    218 C          16.8174  -17.1987  -22.3889 C.3      36        0    0.0000
    219 H          14.7596  -17.4968  -21.7708 H        36        0    0.0000
    220 H          14.9375  -17.0254  -23.4573 H        36        0    0.0000
    221 H          17.1146  -17.4053  -21.3533 H        36        0    0.0000
    222 H          17.0099  -18.1150  -22.9606 H        36        0    0.0000
    223 C          17.7223  -16.0505  -22.9548 C.3      37        0    0.0000
    224 C          19.2043  -16.4403  -22.9851 C.3      37        0    0.0000
    225 H          17.3797  -15.7958  -23.9654 H        37        0    0.0000
    226 H          17.5818  -15.1535  -22.3391 H        37        0    0.0000
    227 H          19.6078  -16.4643  -21.9652 H        37        0    0.0000
    228 H          19.3188  -17.4523  -23.3930 H        37        0    0.0000
    229 C          20.0620  -15.4489  -23.8447 C.3      38        0    0.0000
    230 C          21.5385  -15.8563  -23.9005 C.3      38        0    0.0000
    231 H          19.6445  -15.4077  -24.8584 H        38        0    0.0000
    232 H          19.9655  -14.4408  -23.4230 H        38        0    0.0000
    233 H          21.6557  -16.8931  -23.5618 H        38        0    0.0000
    234 H          21.8997  -15.8202  -24.9358 H        38        0    0.0000
    235 C          22.4439  -14.9306  -23.0169 C.3      39        0    0.0000
    236 C          23.9360  -15.1352  -23.3010 C.3      39        0    0.0000
    237 H          22.1660  -13.8852  -23.1999 H        39        0    0.0000
    238 H          22.2311  -15.1327  -21.9598 H        39        0    0.0000
    239 H          24.0711  -15.6010  -24.2851 H        39        0    0.0000
    240 H          24.4483  -14.1658  -23.3383 H        39        0    0.0000
    241 C          24.6295  -16.0319  -22.2182 C.3      40        0    0.0000
    242 C          26.1130  -16.2677  -22.5226 C.3      40        0    0.0000
    243 H          24.5183  -15.5522  -21.2379 H        40        0    0.0000
    244 H          24.1000  -16.9911  -22.1614 H        40        0    0.0000
    245 H          26.4542  -15.5681  -23.2957 H        40        0    0.0000
    246 H          26.7168  -16.0683  -21.6287 H        40        0    0.0000
    247 C          26.3947  -17.7320  -23.0064 C.3      41        0    0.0000
    248 C          27.6922  -17.8369  -23.8154 C.3      41        0    0.0000
    249 H          26.4434  -18.3906  -22.1304 H        41        0    0.0000
    250 H          25.5457  -18.0742  -23.6110 H        41        0    0.0000
    251 H          28.5467  -17.5356  -23.1968 H        41        0    0.0000
    252 H          27.8685  -18.8788  -24.1102 H        41        0    0.0000
    253 C          27.6623  -16.9453  -25.1045 C.3      42        0    0.0000
    254 C          29.0592  -16.4607  -25.5081 C.3      42        0    0.0000
    255 H          27.2132  -17.5217  -25.9228 H        42        0    0.0000
    256 H          27.0034  -16.0867  -24.9253 H        42        0    0.0000
    257 H          29.0814  -16.2274  -26.5798 H        42        0    0.0000
    258 H          29.3026  -15.5314  -24.9783 H        42        0    0.0000
    259 C          30.1691  -17.5238  -25.1993 C.3      43        0    0.0000
    260 C          31.5484  -17.0873  -25.7055 C.3      43        0    0.0000
    261 H          30.2029  -17.6955  -24.1163 H        43        0    0.0000
    262 H          29.8835  -18.4773  -25.6607 H        43        0    0.0000
    263 H          32.0546  -17.9303  -26.1920 H        43        0    0.0000
    264 H          31.4395  -16.3039  -26.4657 H        43        0    0.0000
    265 C          32.4614  -16.5478  -24.5511 C.3      44        0    0.0000
    266 C          33.8455  -16.1241  -25.0550 C.3      44        0    0.0000
    267 H          31.9597  -15.6985  -24.0710 H        44        0    0.0000
    268 H          32.5621  -17.3276  -23.7861 H        44        0    0.0000
    269 H          33.7657  -15.2005  -25.6417 H        44        0    0.0000
    270 H          34.5033  -15.9020  -24.2056 H        44        0    0.0000
    271 C          34.5190  -17.2285  -25.9405 C.3      45        0    0.0000
    272 C          35.7931  -16.7250  -26.6277 C.3      45        0    0.0000
    273 H          34.7497  -18.0958  -25.3094 H        45        0    0.0000
    274 H          33.7958  -17.5691  -26.6918 H        45        0    0.0000
    275 H          35.8423  -17.1068  -27.6550 H        45        0    0.0000
    276 H          35.7746  -15.6304  -26.6990 H        45        0    0.0000
    277 C          37.0914  -17.1598  -25.8643 C.3      46        0    0.0000
    278 C          38.3673  -16.7379  -26.6013 C.3      46        0    0.0000
    279 H          37.0746  -16.7202  -24.8593 H        46        0    0.0000
    280 H          37.0759  -18.2487  -25.7321 H        46        0    0.0000
    281 H          38.3688  -17.1511  -27.6175 H        46        0    0.0000
    282 H          38.3983  -15.6462  -26.7050 H        46        0    0.0000
    283 C          39.6653  -17.2122  -25.8611 C.3      47        0    0.0000
    284 C          40.9305  -16.9619  -26.6892 C.3      47        0    0.0000
    285 H          39.7353  -16.6886  -24.8996 H        47        0    0.0000
    286 H          39.5711  -18.2808  -25.6317 H        47        0    0.0000
    287 H          41.5130  -17.8876  -26.7751 H        47        0    0.0000
    288 H          40.6593  -16.6644  -27.7097 H        47        0    0.0000
    289 C          41.8398  -15.8490  -26.0631 C.3      48        0    0.0000
    290 C          43.2387  -15.8219  -26.6887 C.3      48        0    0.0000
    291 H          41.3498  -14.8763  -26.1951 H        48        0    0.0000
    292 H          41.9144  -16.0201  -24.9820 H        48        0    0.0000
    293 H          43.8450  -15.0366  -26.2205 H        48        0    0.0000
    294 H          43.7536  -16.7721  -26.5000 H        48        0    0.0000
    295 C          43.1931  -15.5704  -28.2353 C.3      49        0    0.0000
    296 C          44.5928  -15.4158  -28.8402 C.3      49        0    0.0000
    297 H          42.6666  -16.4055  -28.7140 H        49        0    0.0000
    298 H          42.5977  -14.6697  -28.4297 H        49        0    0.0000
    299 H          44.6004  -14.5927  -29.5654 H        49        0    0.0000
    300 H          45.3141  -15.1522  -28.0568 H        49        0    0.0000
    301 C          45.0788  -16.7235  -29.5552 C.3      50        0    0.0000
    302 C          46.6058  -16.8551  -29.5502 C.3      50        0    0.0000
    303 H          44.6251  -17.5888  -29.0562 H        50        0    0.0000
    304 H          44.7047  -16.7226  -30.5865 H        50        0    0.0000
    305 H          46.9071  -17.7615  -30.0897 H        50        0    0.0000
    306 H          47.0581  -16.0078  -30.0805 H        50        0    0.0000
    307 C          47.1924  -16.9132  -28.0976 C.3      51        0    0.0000
    308 C          48.6646  -16.4899  -28.0483 C.3      51        0    0.0000
    309 H          46.5924  -16.2642  -27.4477 H        51        0    0.0000
    310 H          47.0814  -17.9343  -27.7120 H        51        0    0.0000
    311 H          48.7753  -15.4683  -28.4324 H        51        0    0.0000
    312 H          49.0174  -16.4759  -27.0096 H        51        0    0.0000
    313 C          49.5858  -17.4458  -28.8819 C.3      52        0    0.0000
    314 C          51.0290  -16.9363  -28.9637 C.3      52        0    0.0000
    315 H          49.5645  -18.4436  -28.4264 H        52        0    0.0000
    316 H          49.1663  -17.5508  -29.8901 H        52        0    0.0000
    317 H          51.0840  -16.0678  -29.6317 H        52        0    0.0000
    318 H          51.3642  -16.5958  -27.9761 H        52        0    0.0000
    319 C          52.0188  -18.0359  -29.4819 C.3      53        0    0.0000
    320 C          53.3769  -17.4512  -29.8856 C.3      53        0    0.0000
    321 H          52.1524  -18.7899  -28.6963 H        53        0    0.0000
    322 H          51.5612  -18.5491  -30.3367 H        53        0    0.0000
    323 H          53.8556  -18.0942  -30.6346 H        53        0    0.0000
    324 H          53.2391  -16.4693  -30.3551 H        53        0    0.0000
    325 C          54.3439  -17.2949  -28.6617 C.3      54        0    0.0000
    326 C          55.5180  -16.3577  -28.9651 C.3      54        0    0.0000
    327 H          53.7721  -16.9164  -27.8053 H        54        0    0.0000
    328 H          54.7177  -18.2864  -28.3775 H        54        0    0.0000
    329 H          55.2060  -15.5812  -29.6745 H        54        0    0.0000
    330 H          55.8326  -15.8405  -28.0502 H        54        0    0.0000
    331 C          56.7495  -17.1222  -29.5622 C.3      55        0    0.0000
    332 C          57.8811  -16.1723  -29.9697 C.3      55        0    0.0000
    333 H          57.1126  -17.8429  -28.8190 H        55        0    0.0000
    334 H          56.4169  -17.7052  -30.4300 H        55        0    0.0000
    335 H          57.4639  -15.2475  -30.3873 H        55        0    0.0000
    336 H          58.4660  -15.8838  -29.0876 H        55        0    0.0000
    337 C          58.8442  -16.8145  -31.0267 C.3      56        0    0.0000
    338 C          60.3158  -16.4950  -30.7414 C.3      56        0    0.0000
    339 H          58.6894  -17.9006  -31.0323 H        56        0    0.0000
    340 H          58.5670  -16.4516  -32.0242 H        56        0    0.0000
    341 H          60.5486  -15.4731  -31.0657 H        56        0    0.0000
    342 H          60.5068  -16.5341  -29.6618 H        56        0    0.0000
    343 C          61.2902  -17.4885  -31.4631 C.3      57        0    0.0000
    344 C          62.7619  -17.1223  -31.2419 C.3      57        0    0.0000
    345 H          61.0959  -18.5038  -31.0959 H        57        0    0.0000
    346 H          61.0607  -17.4922  -32.5359 H        57        0    0.0000
    347 H          63.3120  -17.9904  -30.8581 H        57        0    0.0000
    348 H          63.2294  -16.8500  -32.1963 H        57        0    0.0000
    349 C          62.9332  -15.9311  -30.2373 C.3      58        0    0.0000
    350 C          64.3676  -15.3915  -30.2153 C.3      58        0    0.0000
    351 H          62.2348  -15.1317  -30.5143 H        58        0    0.0000
    352 H          62.6432  -16.2695  -29.2348 H        58        0    0.0000
    353 H          64.8495  -15.5644  -31.1855 H        58        0    0.0000
    354 H          64.3587  -14.3060  -30.0569 H        58        0    0.0000
    355 C          65.2362  -16.0586  -29.0937 C.3      59        0    0.0000
    356 C          66.7306  -15.7643  -29.2641 C.3      59        0    0.0000
    357 H          64.8906  -15.6975  -28.1171 H        59        0    0.0000
    358 H          65.0620  -17.1417  -29.1088 H        59        0    0.0000
    359 H          66.8699  -14.8802  -29.8986 H        59        0    0.0000
    360 H          67.1808  -15.5284  -28.2918 H        59        0    0.0000
    361 C          67.5048  -16.9699  -29.9002 C.3      60        0    0.0000
    362 C          68.9895  -16.6573  -30.1171 C.3      60        0    0.0000
    363 H          67.3961  -17.8443  -29.2466 H        60        0    0.0000
    364 H          67.0316  -17.2296  -30.8553 H        60        0    0.0000
    365 H          69.2957  -15.8219  -29.4753 H        60        0    0.0000
    366 H          69.6019  -17.5195  -29.8254 H        60        0    0.0000
    367 C          69.3081  -16.2923  -31.6079 C.3      61        0    0.0000
    368 C          70.4856  -15.3186  -31.7286 C.3      61        0    0.0000
    369 H          69.5254  -17.2155  -32.1594 H        61        0    0.0000
    370 H          68.4111  -15.8562  -32.0647 H        61        0    0.0000
    371 H          70.4527  -14.8069  -32.6985 H        61        0    0.0000
    372 H          70.4105  -14.5403  -30.9591 H        61        0    0.0000
    373 C          71.8700  -16.0397  -31.5845 C.3      62        0    0.0000
    374 C          73.0100  -15.0564  -31.2971 C.3      62        0    0.0000
    375 H          71.8005  -16.7809  -30.7787 H        62        0    0.0000
    376 H          72.0767  -16.5959  -32.5072 H        62        0    0.0000
    377 H          72.8499  -14.1227  -31.8505 H        62        0    0.0000
    378 H          73.0205  -14.7935  -30.2321 H        62        0    0.0000
    379 C          74.4113  -15.6410  -31.6870 C.3      63        0    0.0000
    380 C          75.4586  -15.4199  -30.5900 C.3      63        0    0.0000
    381 H          74.3024  -16.7131  -31.8926 H        63        0    0.0000
    382 H          74.7419  -15.1728  -32.6225 H        63        0    0.0000
    383 H          75.5437  -14.3504  -30.3612 H        63        0    0.0000
    384 H          75.1435  -15.9161  -29.6637 H        63        0    0.0000
    385 C          76.8711  -15.9631  -30.9989 C.3      64        0    0.0000
    386 C          78.0027  -15.2820  -30.2215 C.3      64        0    0.0000
    387 H          76.8963  -17.0465  -30.8281 H        64        0    0.0000
    388 H          77.0101  -15.8108  -32.0764 H        64        0    0.0000
    389 H          78.0082  -14.2052  -30.4313 H        64        0    0.0000
    390 H          77.8372  -15.3919  -29.1426 H        64        0    0.0000
    391 C          79.4096  -15.8737  -30.5797 C.3      65        0    0.0000
    392 C          80.5379  -15.2148  -29.7785 C.3      65        0    0.0000
    393 H          79.3967  -16.9545  -30.3923 H        65        0    0.0000
    394 H          79.5852  -15.7423  -31.6546 H        65        0    0.0000
    395 H          80.6039  -14.1487  -30.0286 H        65        0    0.0000
    396 H          80.3208  -15.2737  -28.7047 H        65        0    0.0000
    397 C          81.9289  -15.8846  -30.0503 C.3      66        0    0.0000
    398 C          83.0884  -15.0765  -29.4573 C.3      66        0    0.0000
    399 H          81.9221  -16.8975  -29.6288 H        66        0    0.0000
    400 H          82.0626  -15.9951  -31.1335 H        66        0    0.0000
    401 H          83.1625  -14.1027  -29.9571 H        66        0    0.0000
    402 H          82.9007  -14.8725  -28.3959 H        66        0    0.0000
    403 C          84.4617  -15.8201  -29.5937 C.3      67        0    0.0000
    404 C          85.6167  -15.0250  -28.9750 C.3      67        0    0.0000
    405 H          84.3811  -16.8026  -29.1124 H        67        0    0.0000
    406 H          84.6595  -16.0053  -30.6568 H        67        0    0.0000
    407 H          85.7320  -14.0646  -29.4926 H        67        0    0.0000
    408 H          85.3943  -14.7929  -27.9261 H        67        0    0.0000
    409 C          86.9765  -15.8021  -29.0431 C.3      68        0    0.0000
    410 C          88.1438  -14.9801  -28.4857 C.3      68        0    0.0000
    411 H          86.8760  -16.7403  -28.4835 H        68        0    0.0000
    412 H          87.1746  -16.0773  -30.0865 H        68        0    0.0000
    413 H          88.6408  -14.4341  -29.2972 H        68        0    0.0000
    414 H          87.7706  -14.2264  -27.7813 H        68        0    0.0000
    415 C          89.2041  -15.8738  -27.7547 C.3      69        0    0.0000
    416 C          90.4141  -15.0647  -27.2748 C.3      69        0    0.0000
    417 H          88.7217  -16.3699  -26.9033 H        69        0    0.0000
    418 H          89.5296  -16.6674  -28.4386 H        69        0    0.0000
    419 H          90.6567  -14.2822  -28.0045 H        69        0    0.0000
    420 H          90.1759  -14.5545  -26.3332 H        69        0    0.0000
    421 C          91.6805  -15.9624  -27.0568 C.3      70        0    0.0000
    422 C          92.9529  -15.1325  -26.8534 C.3      70        0    0.0000
    423 H          91.5102  -16.6090  -26.1870 H        70        0    0.0000
    424 H          91.7980  -16.6247  -27.9234 H        70        0    0.0000
    425 H          93.7425  -15.4827  -27.5296 H        70        0    0.0000
    426 H          92.7620  -14.0827  -27.1088 H        70        0    0.0000
    427 C          93.4808  -15.2059  -25.3792 C.3      71        0    0.0000
    428 C          94.6302  -14.2246  -25.1242 C.3      71        0    0.0000
    429 H          92.6491  -14.9971  -24.6949 H        71        0    0.0000
    430 H          93.8092  -16.2319  -25.1719 H        71        0    0.0000
    431 H          95.0935  -13.9328  -26.0749 H        71        0    0.0000
    432 H          94.2451  -13.3051  -24.6661 H        71        0    0.0000
    433 C          95.7331  -14.8312  -24.1898 C.3      72        0    0.0000
    434 C          97.0022  -13.9726  -24.1560 C.3      72        0    0.0000
    435 H          95.3217  -14.9345  -23.1781 H        72        0    0.0000
    436 H          95.9731  -15.8438  -24.5372 H        72        0    0.0000
    437 H          97.2477  -13.6241  -25.1668 H        72        0    0.0000
    438 H          96.8339  -13.0765  -23.5459 H        72        0    0.0000
    439 C          98.2325  -14.7535  -23.5781 C.3      73        0    0.0000
    440 C          99.2144  -13.8315  -22.8469 C.3      73        0    0.0000
    441 H          97.8686  -15.5321  -22.8961 H        73        0    0.0000
    442 H          98.7425  -15.2691  -24.4013 H        73        0    0.0000
    443 H          99.4236  -12.9446  -23.4578 H        73        0    0.0000
    444 H          98.7674  -13.4717  -21.9118 H        73        0    0.0000
    445 C         100.5688  -14.5483  -22.5164 C.3      74        0    0.0000
    446 C         101.6688  -13.5575  -22.1197 C.3      74        0    0.0000
    447 H         100.3997  -15.2672  -21.7051 H        74        0    0.0000
    448 H         100.8840  -15.1297  -23.3917 H        74        0    0.0000
    449 H         102.5856  -13.7673  -22.6845 H        74        0    0.0000
    450 H         101.3659  -12.5355  -22.3792 H        74        0    0.0000
    451 C         101.9951  -13.6141  -20.5875 C.3      75        0    0.0000
    452 C         103.1547  -12.6874  -20.2059 C.3      75        0    0.0000
    453 H         101.0944  -13.3413  -20.0238 H        75        0    0.0000
    454 H         102.2356  -14.6493  -20.3152 H        75        0    0.0000
    455 H         103.7745  -12.4782  -21.0866 H        75        0    0.0000
    456 H         102.7661  -11.7224  -19.8577 H        75        0    0.0000
    457 C         104.0615  -13.3014  -19.0842 C.3      76        0    0.0000
    458 C         105.3169  -12.4606  -18.8271 C.3      76        0    0.0000
    459 H         103.4729  -13.3901  -18.1627 H        76        0    0.0000
    460 H         104.3446  -14.3202  -19.3765 H        76        0    0.0000
    461 H         105.9099  -12.3790  -19.7465 H        76        0    0.0000
    462 H         105.0340  -11.4394  -18.5430 H        76        0    0.0000
    463 C         106.2177  -13.0681  -17.6971 C.3      77        0    0.0000
    464 C         107.2225  -12.0508  -17.1453 C.3      77        0    0.0000
    465 H         105.5723  -13.4354  -16.8896 H        77        0    0.0000
    466 H         106.7478  -13.9408  -18.0983 H        77        0    0.0000
    467 H         107.7883  -11.5966  -17.9681 H        77        0    0.0000
    468 H         106.6920  -11.2345  -16.6395 H        77        0    0.0000
    469 C         108.2313  -12.6996  -16.1359 C.3      78        0    0.0000
    470 C         109.4328  -11.7917  -15.8511 C.3      78        0    0.0000
    471 H         107.7012  -12.9259  -15.2024 H        78        0    0.0000
    472 H         108.5729  -13.6586  -16.5447 H        78        0    0.0000
    473 H         109.8680  -11.4369  -16.7936 H        78        0    0.0000
    474 H         109.1087  -10.9010  -15.2988 H        78        0    0.0000
    475 C         110.5463  -12.5219  -15.0238 C.3      79        0    0.0000
    476 C         111.2831  -11.5703  -14.0748 C.3      79        0    0.0000
    477 H         110.0855  -13.3387  -14.4545 H        79        0    0.0000
    478 H         111.2573  -12.9848  -15.7193 H        79        0    0.0000
    479 H         111.6289  -10.6853  -14.6233 H        79        0    0.0000
    480 H         110.5987  -11.2109  -13.2963 H        79        0    0.0000
    481 C         112.5159  -12.2528  -13.3881 C.3      80        0    0.0000
    482 C         113.5101  -11.2288  -12.8294 C.3      80        0    0.0000
    483 H         112.1558  -12.9054  -12.5831 H        80        0    0.0000
    484 H         113.0144  -12.9006  -14.1197 H        80        0    0.0000
    485 H         113.4947  -10.3176  -13.4401 H        80        0    0.0000
    486 H         113.2154  -10.9332  -11.8148 H        80        0    0.0000
    487 C         114.9753  -11.7847  -12.7881 C.3      81        0    0.0000
    488 C         115.7029  -11.4090  -11.4925 C.3      81        0    0.0000
    489 H         114.9428  -12.8757  -12.8985 H        81        0    0.0000
    490 H         115.5253  -11.3966  -13.6545 H        81        0    0.0000
    491 H         114.9876  -11.3514  -10.6626 H        81        0    0.0000
    492 H         116.4288  -12.1882  -11.2292 H        81        0    0.0000
    493 C         116.4535  -10.0377  -11.6088 C.3      82        0    0.0000
    494 C         117.0708   -9.5986  -10.2765 C.3      82        0    0.0000
    495 H         117.2344  -10.1258  -12.3743 H        82        0    0.0000
    496 H         115.7475   -9.2772  -11.9651 H        82        0    0.0000
    497 H         117.7568   -8.7580  -10.4387 H        82        0    0.0000
    498 H         116.2865   -9.2389   -9.5989 H        82        0    0.0000
    499 C         117.8529  -10.7605   -9.5725 C.3      83        0    0.0000
    500 C         118.3063  -10.3821   -8.1582 C.3      83        0    0.0000
    501 H         117.2098  -11.6486   -9.5364 H        83        0    0.0000
    502 H         118.7217  -11.0255  -10.1878 H        83        0    0.0000
    503 H         117.6621   -9.5905   -7.7559 H        83        0    0.0000
    504 H         118.2033  -11.2437   -7.4870 H        83        0    0.0000
    505 C         119.7941   -9.8893   -8.1232 C.3      84        0    0.0000
    506 C         120.3704   -9.8825   -6.7030 C.3      84        0    0.0000
    507 H         120.3968  -10.5382   -8.7706 H        84        0    0.0000
    508 H         119.8430   -8.8815   -8.5539 H        84        0    0.0000
    509 H         120.0356   -8.9866   -6.1655 H        84        0    0.0000
    510 H         119.9948  -10.7462   -6.1404 H        84        0    0.0000
    511 C         121.9376   -9.9187   -6.6976 C.3      85        0    0.0000
    512 C         122.5271   -9.3568   -5.3993 C.3      85        0    0.0000
    513 H         122.2678  -10.9547   -6.8432 H        85        0    0.0000
    514 H         122.3075   -9.3464   -7.5573 H        85        0    0.0000
    515 H         123.5425   -8.9820   -5.5785 H        85        0    0.0000
    516 H         121.9320   -8.5020   -5.0549 H        85        0    0.0000
    517 C         122.5788  -10.4294   -4.2572 C.3      86        0    0.0000
    518 C         122.9156   -9.8120   -2.8954 C.3      86        0    0.0000
    519 H         121.6097  -10.9413   -4.2088 H        86        0    0.0000
    520 H         123.3242  -11.1902   -4.5200 H        86        0    0.0000
    521 H         122.7328   -8.7305   -2.9171 H        86        0    0.0000
    522 H         122.2583  -10.2271   -2.1213 H        86        0    0.0000
    523 C         124.4063  -10.0644   -2.4810 C.3      87        0    0.0000
    524 C         124.8195   -9.2312   -1.2628 C.3      87        0    0.0000
    525 H         124.5383  -11.1325   -2.2685 H        87        0    0.0000
    526 H         125.0549   -9.8304   -3.3343 H        87        0    0.0000
    527 H         125.0632   -8.2073   -1.5725 H        87        0    0.0000
    528 H         123.9830   -9.1562   -0.5571 H        87        0    0.0000
    529 C         126.0562   -9.8415   -0.5175 C.3      88        0    0.0000
    530 C         126.8571   -8.7799    0.2446 C.3      88        0    0.0000
    531 H         125.7047  -10.6165    0.1749 H        88        0    0.0000
    532 H         126.6993  -10.3429   -1.2514 H        88        0    0.0000
    533 H         126.8612   -7.8372   -0.3164 H        88        0    0.0000
    534 H         126.3801   -8.5700    1.2100 H        88        0    0.0000
    535 C         128.3392   -9.2229    0.4990 C.3      89        0    0.0000
    536 C         128.8483   -8.7841    1.8764 C.3      89        0    0.0000
    537 H         128.4033  -10.3140    0.4044 H        89        0    0.0000
    538 H         128.9747   -8.8005   -0.2891 H        89        0    0.0000
    539 H         128.0012   -8.5761    2.5418 H        89        0    0.0000
    540 H         129.4223   -9.5953    2.3413 H        89        0    0.0000
    541 C         129.7532   -7.5065    1.7960 C.3      90        0    0.0000
    542 C         130.0706   -6.9315    3.1808 C.3      90        0    0.0000
    543 H         130.6828   -7.7640    1.2735 H        90        0    0.0000
    544 H         129.2457   -6.7518    1.1825 H        90        0    0.0000
    545 H         130.3647   -5.8783    3.0923 H        90        0    0.0000
    546 H         129.1743   -6.9562    3.8128 H        90        0    0.0000
    547 C         131.2191   -7.7180    3.9017 C.3      91        0    0.0000
    548 C         131.3619   -7.3175    5.3742 C.3      91        0    0.0000
    549 H         131.0154   -8.7930    3.8223 H        91        0    0.0000
    550 H         132.1608   -7.5357    3.3693 H        91        0    0.0000
    551 H         131.8416   -6.3339    5.4517 H        91        0    0.0000
    552 H         130.3713   -7.2221    5.8358 H        91        0    0.0000
    553 C         132.2033   -8.3559    6.1934 C.3      92        0    0.0000
    554 C         132.9998   -7.6954    7.3241 C.3      92        0    0.0000
    555 H         131.5257   -9.1147    6.6041 H        92        0    0.0000
    556 H         132.8836   -8.8782    5.5094 H        92        0    0.0000
    557 H         133.6685   -6.9281    6.9147 H        92        0    0.0000
    558 H         132.3185   -7.1834    8.0149 H        92        0    0.0000
    559 C         133.8545   -8.7314    8.1325 C.3      93        0    0.0000
    560 C         134.5092   -8.1054    9.3689 C.3      93        0    0.0000
    561 H         133.2086   -9.5664    8.4310 H        93        0    0.0000
    562 H         134.6232   -9.1489    7.4705 H        93        0    0.0000
    563 H         133.9816   -7.1851    9.6486 H        93        0    0.0000
    564 H         134.4273   -8.7878   10.2240 H        93        0    0.0000
    565 C         136.0221   -7.7690    9.1339 C.3      94        0    0.0000
    566 C         136.5555   -6.7520   10.1489 C.3      94        0    0.0000
    567 H         136.6038   -8.6975    9.1906 H        94        0    0.0000
    568 H         136.1443   -7.3826    8.1145 H        94        0    0.0000
    569 H         135.9154   -5.8611   10.1606 H        94        0    0.0000
    570 H         136.5226   -7.1768   11.1599 H        94        0    0.0000
    571 C         138.0268   -6.3129    9.8329 C.3      95        0    0.0000
    572 C         138.6411   -5.4826   10.9653 C.3      95        0    0.0000
    573 H         138.6325   -7.2097    9.6527 H        95        0    0.0000
    574 H         138.0311   -5.7369    8.8992 H        95        0    0.0000
    575 H         139.2478   -4.6690   10.5488 H        95        0    0.0000
    576 H         137.8481   -5.0119   11.5595 H        95        0    0.0000
    577 C         139.5392   -6.3470   11.9160 C.3      96        0    0.0000
    578 C         139.7247   -5.6956   13.2908 C.3      96        0    0.0000
    579 H         139.0835   -7.3386   12.0279 H        96        0    0.0000
    580 H         140.5146   -6.5007   11.4378 H        96        0    0.0000
    581 H         139.9280   -4.6238   13.1749 H        96        0    0.0000
    582 H         138.7998   -5.7795   13.8747 H        96        0    0.0000
    583 C         140.8962   -6.3471   14.1037 C.3      97        0    0.0000
    584 C         140.9745   -5.8138   15.5385 C.3      97        0    0.0000
    585 H         140.7572   -7.4352   14.1139 H        97        0    0.0000
    586 H         141.8403   -6.1550   13.5790 H        97        0    0.0000
    587 H         140.4542   -4.8507   15.6107 H        97        0    0.0000
    588 H         140.4623   -6.5007   16.2235 H        97        0    0.0000
    589 C         142.4536   -5.6267   16.0229 C.3      98        0    0.0000
    590 C         142.5700   -4.5919   17.1475 C.3      98        0    0.0000
    591 H         142.8399   -6.5958   16.3620 H        98        0    0.0000
    592 H         143.0701   -5.3236   15.1675 H        98        0    0.0000
    593 H         141.8769   -3.7608   16.9671 H        98        0    0.0000
    594 H         142.2794   -5.0423   18.1047 H        98        0    0.0000
    595 C         144.0231   -4.0186   17.2792 C.3      99        0    0.0000
    596 C         144.5375   -4.0657   18.7222 C.3      99        0    0.0000
    597 H         144.6901   -4.5915   16.6231 H        99        0    0.0000
    598 H         144.0302   -2.9852   16.9109 H        99        0    0.0000
    599 H         144.1888   -3.1845   19.2748 H        99        0    0.0000
    600 H         144.1292   -4.9433   19.2386 H        99        0    0.0000
    601 C         146.1025   -4.1203   18.7935 C.3     100        0    0.0000
    602 C         146.6411   -3.6099   20.1346 C.3     100        0    0.0000
    603 H         146.4283   -5.1544   18.6264 H       100        0    0.0000
    604 H         146.5150   -3.5232   17.9707 H       100        0    0.0000
    605 H         146.9402   -2.5583   20.0441 H       100        0    0.0000
    606 H         145.8522   -3.6486   20.8960 H       100        0    0.0000
    607 C         147.8698   -4.4434   20.6374 C.3     101        0    0.0000
    608 C         148.1985   -4.1641   22.1081 C.3     101        0    0.0000
    609 H         147.6554   -5.5099   20.4958 H       101        0    0.0000
    610 H         148.7370   -4.2100   20.0072 H       101        0    0.0000
    611 H         147.3255   -3.7327   22.6133 H       101        0    0.0000
    612 H         148.4306   -5.1027   22.6265 H       101        0    0.0000
    613 C         149.4114   -3.1842   22.2700 C.3     102        0    0.0000
    614 C         149.5166   -2.6201   23.6912 C.3     102        0    0.0000
    615 H         150.3339   -3.7169   22.0075 H       102        0    0.0000
    616 H         149.3037   -2.3658   21.5475 H       102        0    0.0000
    617 H         149.0446   -1.6309   23.7392 H       102        0    0.0000
    618 H         148.9713   -3.2636   24.3927 H       102        0    0.0000
    619 C         151.0034   -2.4944   24.1720 C.3     103        0    0.0000
    620 C         151.1047   -2.1245   25.6559 C.3     103        0    0.0000
    621 H         151.5169   -3.4458   23.9855 H       103        0    0.0000
    622 H         151.5101   -1.7377   23.5602 H       103        0    0.0000
    623 H         150.6199   -1.1571   25.8364 H       103        0    0.0000
    624 H         150.5697   -2.8635   26.2652 H       103        0    0.0000
    625 C         152.5909   -2.0446   26.1481 C.3     104        0    0.0000
    626 C         152.7715   -1.0377   27.2894 C.3     104        0    0.0000
    627 H         152.9100   -3.0427   26.4730 H       104        0    0.0000
    628 H         153.2301   -1.7702   25.2997 H       104        0    0.0000
    629 H         152.1216   -0.1683   27.1303 H       104        0    0.0000
    630 H         152.4659   -1.4894   28.2414 H       104        0    0.0000
    631 C         154.2538   -0.5440   27.4172 C.3     105        0    0.0000
    632 C         154.9661   -1.1521   28.6304 C.3     105        0    0.0000
    633 H         154.7927   -0.8009   26.4968 H       105        0    0.0000
    634 H         154.2570    0.5507   27.4889 H       105        0    0.0000
    635 H         154.6473   -0.6426   29.5482 H       105        0    0.0000
    636 H         154.6853   -2.2068   28.7418 H       105        0    0.0000
    637 C         156.5263   -1.0542   28.5140 C.3     106        0    0.0000
    638 C         157.1598   -0.3901   29.7415 C.3     106        0    0.0000
    639 H         156.9349   -2.0634   28.3794 H       106        0    0.0000
    640 H         156.7785   -0.4888   27.6083 H       106        0    0.0000
    641 H         156.6430    0.5505   29.9690 H       106        0    0.0000
    642 H         157.0417   -1.0351   30.6211 H       106        0    0.0000
    643 C         158.6848   -0.0916   29.5348 C.3     107        0    0.0000
    644 C         159.5015   -0.3313   30.8094 C.3     107        0    0.0000
    645 H         159.0620   -0.7244   28.7218 H       107        0    0.0000
    646 H         158.8000    0.9481   29.2042 H       107        0    0.0000
    647 H         159.4196    0.5353   31.4772 H       107        0    0.0000
    648 H         159.0983   -1.1913   31.3584 H       107        0    0.0000
    649 C         161.0168   -0.5923   30.5038 C.3     108        0    0.0000
    650 C         161.9073    0.5754   30.9425 C.3     108        0    0.0000
    651 H         161.3266   -1.5135   31.0126 H       108        0    0.0000
    652 H         161.1347   -0.7717   29.4279 H       108        0    0.0000
    653 H         161.6024    1.4951   30.4280 H       108        0    0.0000
    654 H         161.7837    0.7597   32.0169 H       108        0    0.0000
    655 C         163.4237    0.3099   30.6466 C.3     109        0    0.0000
    656 C         164.2729    1.5785   30.7830 C.3     109        0    0.0000
    657 H         163.7883   -0.4627   31.3348 H       109        0    0.0000
    658 H         163.5198   -0.0999   29.6335 H       109        0    0.0000
    659 H         163.9020    2.3545   30.1020 H       109        0    0.0000
    660 H         164.1848    1.9827   31.7991 H       109        0    0.0000
    661 C         165.7870    1.3160   30.4732 C.3     110        0    0.0000
    662 C         166.6363    2.5844   30.6102 C.3     110        0    0.0000
    663 H         166.1578    0.5397   31.1539 H       110        0    0.0000
    664 H         165.8752    0.9122   29.4570 H       110        0    0.0000
    665 H         166.2247    3.3827   29.9802 H       110        0    0.0000
    666 H         166.6024    2.9500   31.6440 H       110        0    0.0000
    667 C         168.1323    2.3441   30.2080 C.3     111        0    0.0000
    668 C         168.9358    3.6481   30.1534 C.3     111        0    0.0000
    669 H         168.5857    1.6528   30.9293 H       111        0    0.0000
    670 H         168.1601    1.8439   29.2320 H       111        0    0.0000
    671 H         168.4259    4.3775   29.5119 H       111        0    0.0000
    672 H         168.9954    4.0954   31.1534 H       111        0    0.0000
    673 C         170.3900    3.4276   29.6110 C.3     112        0    0.0000
    674 C         171.1698    4.7414   29.4890 C.3     112        0    0.0000
    675 H         170.9171    2.7383   30.2822 H       112        0    0.0000
    676 H         170.3316    2.9327   28.6337 H       112        0    0.0000
    677 H         170.6169    5.4500   28.8599 H       112        0    0.0000
    678 H         171.2736    5.2102   30.4754 H       112        0    0.0000
    679 C         172.5976    4.5301   28.8772 C.3     113        0    0.0000
    680 C         173.2995    5.8572   28.5685 C.3     113        0    0.0000
    681 H         173.1997    3.9407   29.5798 H       113        0    0.0000
    682 H         172.5054    3.9317   27.9624 H       113        0    0.0000
    683 H         172.6805    6.4622   27.8943 H       113        0    0.0000
    684 H         173.4241    6.4400   29.4896 H       113        0    0.0000
    685 C         174.7063    5.6462   27.9099 C.3     114        0    0.0000
    686 C         175.2849    6.9486   27.3459 C.3     114        0    0.0000
    687 H         175.3880    5.2252   28.6593 H       114        0    0.0000
    688 H         174.6147    4.8987   27.1121 H       114        0    0.0000
    689 H         174.5874    7.3874   26.6217 H       114        0    0.0000
    690 H         175.4085    7.6845   28.1500 H       114        0    0.0000
    691 C         176.6696    6.7289   26.6448 C.3     115        0    0.0000
    692 C         177.1817    8.0004   25.9592 C.3     115        0    0.0000
    693 H         177.3949    6.3871   27.3936 H       115        0    0.0000
    694 H         176.5698    5.9198   25.9106 H       115        0    0.0000
    695 H         176.4400    8.3631   25.2368 H       115        0    0.0000
    696 H         177.3169    8.7986   26.6996 H       115        0    0.0000
    697 C         178.5410    7.7672   25.2138 C.3     116        0    0.0000
    698 C         178.9981    9.0073   24.4378 C.3     116        0    0.0000
    699 H         179.3031    7.4816   25.9494 H       116        0    0.0000
    700 H         178.4281    6.9163   24.5306 H       116        0    0.0000
    701 H         178.2213    9.3133   23.7262 H       116        0    0.0000
    702 H         179.1441    9.8490   25.1261 H       116        0    0.0000
    703 C         180.3324    8.7588   23.6534 C.3     117        0    0.0000
    704 C         180.7464    9.9715   22.8125 C.3     117        0    0.0000
    705 H         181.1240    8.5111   24.3715 H       117        0    0.0000
    706 H         180.2054    7.8800   23.0090 H       117        0    0.0000
    707 H         179.9415   10.2393   22.1169 H       117        0    0.0000
    708 H         180.9052   10.8422   23.4608 H       117        0    0.0000
    709 C         182.0558    9.7067   21.9923 C.3     118        0    0.0000
    710 C         182.4244   10.8888   21.0890 C.3     118        0    0.0000
    711 H         182.8749    9.4978   22.6915 H       118        0    0.0000
    712 H         181.9180    8.8009   21.3889 H       118        0    0.0000
    713 H         181.5938   11.1163   20.4095 H       118        0    0.0000
    714 H         182.5908   11.7878   21.6953 H       118        0    0.0000
    715 C         183.7108   10.6078   20.2383 C.3     119        0    0.0000
    716 C         184.0430   11.7640   19.2886 C.3     119        0    0.0000
    717 H         184.5520   10.4263   20.9187 H       119        0    0.0000
    718 H         183.5621    9.6829   19.6674 H       119        0    0.0000
    719 H         183.1904   11.9652   18.6282 H       119        0    0.0000
    720 H         184.2211   12.6823   19.8617 H       119        0    0.0000
    721 C         185.3049   11.4653   18.4077 C.3     120        0    0.0000
    722 C         185.6057   12.5986   17.4206 C.3     120        0    0.0000
    723 H         186.1662   11.3027   19.0675 H       120        0    0.0000
    724 H         185.1427   10.5263   17.8643 H       120        0    0.0000
    725 H         184.7389   12.7712   16.7707 H       120        0    0.0000
    726 H         185.7826   13.5345   17.9650 H       120        0    0.0000
    727 C         186.8552   12.2907   16.5254 C.3     121        0    0.0000
    728 C         187.1222   13.3982   15.5001 C.3     121        0    0.0000
    729 H         187.7306   12.1590   17.1734 H       121        0    0.0000
    730 H         186.6959   11.3340   16.0128 H       121        0    0.0000
    731 H         186.2426   13.5378   14.8595 H       121        0    0.0000
    732 H         187.2929   14.3527   16.0132 H       121        0    0.0000
    733 C         188.3621   13.0827   14.5942 C.3     122        0    0.0000
    734 C         188.5851   14.1542   13.5212 C.3     122        0    0.0000
    735 H         189.2518   12.9963   15.2302 H       122        0    0.0000
    736 H         188.2155   12.1030   14.1228 H       122        0    0.0000
    737 H         187.6996   14.2328   12.8784 H       122        0    0.0000
    738 H         188.7207   15.1357   13.9922 H       122        0    0.0000
    739 C         189.8342   13.8468   12.6252 C.3     123        0    0.0000
    740 C         190.0082   14.8724   11.4997 C.3     123        0    0.0000
    741 H         190.7289   13.8292   13.2599 H       123        0    0.0000
    742 H         189.7274   12.8397   12.2033 H       123        0    0.0000
    743 H         189.1126   14.8916   10.8664 H       123        0    0.0000
    744 H         190.1173   15.8792   11.9218 H       123        0    0.0000
    745 C         191.2555   14.5632   10.6018 C.3     124        0    0.0000
    746 C         191.3627   15.5181    9.4078 C.3     124        0    0.0000
    747 H         192.1603   14.6291   11.2186 H       124        0    0.0000
    748 H         191.1892   13.5264   10.2495 H       124        0    0.0000
    749 H         190.4545   15.4580    8.7953 H       124        0    0.0000
    750 H         191.4369   16.5544    9.7604 H       124        0    0.0000
    751 C         192.6037   15.2019    8.5037 C.3     125        0    0.0000
    752 C         192.6837   16.1256    7.2833 C.3     125        0    0.0000
    753 H         193.5146   15.2969    9.1077 H       125        0    0.0000
    754 H         192.5479   14.1551    8.1802 H       125        0    0.0000
    755 H         191.7718   16.0322    6.6804 H       125        0    0.0000
    756 H         192.7415   17.1722    7.6068 H       125        0    0.0000
    757 C         193.9230   15.8074    6.3776 C.3     126        0    0.0000
    758 C         193.9369   16.6478    5.0960 C.3     126        0    0.0000
    759 H         194.8383   15.9869    6.9551 H       126        0    0.0000
    760 H         193.9129   14.7394    6.1270 H       126        0    0.0000
    761 H         193.0145   16.4802    4.5262 H       126        0    0.0000
    762 H         193.9628   17.7155    5.3466 H       126        0    0.0000
    763 C         195.1644   16.3139    4.1799 C.3     127        0    0.0000
    764 C         195.0696   16.9956    2.8104 C.3     127        0    0.0000
    765 H         196.0831   16.6253    4.6923 H       127        0    0.0000
    766 H         195.2267   15.2257    4.0549 H       127        0    0.0000
    767 H         194.1258   16.7258    2.3205 H       127        0    0.0000
    768 H         195.0607   18.0857    2.9327 H       127        0    0.0000
    769 C         196.2587   16.6026    1.8676 C.3     128        0    0.0000
    770 C         197.2801   17.7354    1.7179 C.3     128        0    0.0000
    771 H         196.7473   15.7063    2.2694 H       128        0    0.0000
    772 H         195.8551   16.3277    0.8852 H       128        0    0.0000
    773 H         196.9505   18.4392    0.9435 H       128        0    0.0000
    774 H         197.3494   18.3054    2.6527 H       128        0    0.0000
    775 C         198.7065   17.2037    1.3434 C.3     129        0    0.0000
    776 C         198.8244   16.8553   -0.1445 C.3     129        0    0.0000
    777 H         199.4494   17.9651    1.6114 H       129        0    0.0000
    778 H         198.9263   16.3200    1.9552 H       129        0    0.0000
    779 H         197.9742   16.2349   -0.4541 H       129        0    0.0000
    780 H         198.7839   17.7696   -0.7493 H       129        0    0.0000
    781 C         200.1533   16.0911   -0.4722 C.3     130        0    0.0000
    782 C         199.9305   14.9307   -1.4484 C.3     130        0    0.0000
    783 H         200.8758   16.8021   -0.8917 H       130        0    0.0000
    784 H         200.5863   15.7173    0.4639 H       130        0    0.0000
    785 H         199.2557   14.1890   -1.0033 H       130        0    0.0000
    786 H         199.4410   15.2948   -2.3602 H       130        0    0.0000
    787 C         201.2713   14.2210   -1.8436 C.3     131        0    0.0000
    788 C         201.3819   13.9885   -3.3545 C.3     131        0    0.0000
    789 H         202.1118   14.8336   -1.4948 H       131        0    0.0000
    790 H         201.3358   13.2646   -1.3101 H       131        0    0.0000
    791 H         200.6125   13.2789   -3.6832 H       131        0    0.0000
    792 H         201.1971   14.9258   -3.8939 H       131        0    0.0000
    793 C         202.7891   13.4359   -3.7691 C.3     132        0    0.0000
    794 C         202.6979   12.4012   -4.8961 C.3     132        0    0.0000
    795 H         203.4214   14.2766   -4.0806 H       132        0    0.0000
    796 H         203.2680   12.9911   -2.8879 H       132        0    0.0000
    797 H         201.7717   11.8211   -4.8000 H       132        0    0.0000
    798 H         202.6532   12.9071   -5.8685 H       132        0    0.0000
    799 C         203.9151   11.4134   -4.8957 C.3     133        0    0.0000
    800 C         205.1015   11.9534   -5.7020 C.3     133        0    0.0000
    801 H         204.2191   11.2271   -3.8582 H       133        0    0.0000
    802 H         203.5887   10.4499   -5.3062 H       133        0    0.0000
    803 H         204.7681   12.2634   -6.7001 H       133        0    0.0000
    804 H         205.5117   12.8468   -5.2152 H       133        0    0.0000
    805 C         206.2455   10.8930   -5.8582 C.3     134        0    0.0000
    806 C         207.3395   11.3571   -6.8260 C.3     134        0    0.0000
    807 H         206.6779   10.6912   -4.8704 H       134        0    0.0000
    808 H         205.8081    9.9500   -6.2091 H       134        0    0.0000
    809 H         206.9248   12.0718   -7.5477 H       134        0    0.0000
    810 H         208.1282   11.8859   -6.2766 H       134        0    0.0000
    811 C         207.9841   10.1629   -7.6109 C.3     135        0    0.0000
    812 C         209.5158   10.2097   -7.5843 C.3     135        0    0.0000
    813 H         207.6289    9.2207   -7.1753 H       135        0    0.0000
    814 H         207.6249   10.1860   -8.6472 H       135        0    0.0000
    815 H         209.8643   11.2315   -7.7794 H       135        0    0.0000
    816 H         209.8833    9.9365   -6.5874 H       135        0    0.0000
    817 C         210.1580    9.2463   -8.6411 C.3     136        0    0.0000
    818 C         211.6814    9.1592   -8.4975 C.3     136        0    0.0000
    819 H         209.7120    8.2503   -8.5287 H       136        0    0.0000
    820 H         209.8944    9.5979   -9.6463 H       136        0    0.0000
    821 H         212.0903   10.1400   -8.2245 H       136        0    0.0000
    822 H         211.9439    8.4711   -7.6844 H       136        0    0.0000
    823 C         212.3755    8.6717   -9.8159 C.3     137        0    0.0000
    824 C         213.3148    7.4851   -9.5732 C.3     137        0    0.0000
    825 H         211.6010    8.3960  -10.5422 H       137        0    0.0000
    826 H         212.9330    9.5095  -10.2526 H       137        0    0.0000
    827 H         213.9286    7.6672   -8.6824 H       137        0    0.0000
    828 H         212.7310    6.5780   -9.3734 H       137        0    0.0000
    829 C         214.2619    7.2179  -10.7935 C.3     138        0    0.0000
    830 C         214.8277    5.7935  -10.7886 C.3     138        0    0.0000
    831 H         213.7034    7.3976  -11.7205 H       138        0    0.0000
    832 H         215.0805    7.9479  -10.7723 H       138        0    0.0000
    833 H         215.1435    5.5177   -9.7748 H       138        0    0.0000
    834 H         214.0490    5.0784  -11.0815 H       138        0    0.0000
    835 C         216.0491    5.6361  -11.7587 C.3     139        0    0.0000
    836 C         216.3169    4.1715  -12.1225 C.3     139        0    0.0000
    837 H         215.8567    6.2202  -12.6671 H       139        0    0.0000
    838 H         216.9361    6.0741  -11.2844 H       139        0    0.0000
    839 H         216.2905    3.5488  -11.2197 H       139        0    0.0000
    840 H         215.5269    3.7982  -12.7859 H       139        0    0.0000
    841 C         217.7030    3.9787  -12.8289 C.3     140        0    0.0000
    842 C         217.8650    2.5724  -13.4162 C.3     140        0    0.0000
    843 H         217.8039    4.7311  -13.6209 H       140        0    0.0000
    844 H         218.5007    4.1772  -12.1024 H       140        0    0.0000
    845 H         217.5815    1.8186  -12.6712 H       140        0    0.0000
    846 H         217.1889    2.4412  -14.2701 H       140        0    0.0000
    847 C         219.3336    2.2906  -13.8866 C.3     141        0    0.0000
    848 C         219.4490    0.9839  -14.6793 C.3     141        0    0.0000
    849 H         219.6767    3.1336  -14.4991 H       141        0    0.0000
    850 H         219.9864    2.2550  -13.0057 H       141        0    0.0000
    851 H         218.9685    0.1659  -14.1282 H       141        0    0.0000
    852 H         218.9172    1.0752  -15.6345 H       141        0    0.0000
    853 C         220.9396    0.5927  -14.9662 C.3     142        0    0.0000
    854 C         221.0531   -0.6262  -15.8884 C.3     142        0    0.0000
    855 H         221.4509    1.4531  -15.4154 H       142        0    0.0000
    856 H         221.4421    0.3906  -14.0121 H       142        0    0.0000
    857 H         220.4422   -1.4503  -15.4995 H       142        0    0.0000
    858 H         220.6585   -0.3836  -16.8828 H       142        0    0.0000
    859 C         222.5328   -1.1216  -16.0389 C.3     143        0    0.0000
    860 C         222.6530   -2.3079  -17.0019 C.3     143        0    0.0000
    861 H         223.1510   -0.2867  -16.3915 H       143        0    0.0000
    862 H         222.9148   -1.4004  -15.0491 H       143        0    0.0000
    863 H         222.0457   -3.1476  -16.6419 H       143        0    0.0000
    864 H         222.2581   -2.0335  -17.9880 H       143        0    0.0000
    865 C         224.1352   -2.7907  -17.1676 C.3     144        0    0.0000
    866 C         224.2522   -3.9941  -18.1095 C.3     144        0    0.0000
    867 H         224.7386   -1.9564  -17.5464 H       144        0    0.0000
    868 H         224.5365   -3.0463  -16.1791 H       144        0    0.0000
    869 H         223.5785   -4.7954  -17.7816 H       144        0    0.0000
    870 H         223.9367   -3.7117  -19.1216 H       144        0    0.0000
    871 C         225.7136   -4.5577  -18.1746 C.3     145        0    0.0000
    872 C         225.8203   -5.7925  -19.0762 C.3     145        0    0.0000
    873 H         226.3815   -3.7673  -18.5388 H       145        0    0.0000
    874 H         226.0429   -4.8048  -17.1577 H       145        0    0.0000
    875 H         225.7716   -6.7059  -18.4704 H       145        0    0.0000
    876 H         224.9697   -5.8277  -19.7681 H       145        0    0.0000
    877 C         227.1491   -5.8080  -19.9077 C.3     146        0    0.0000
    878 C         227.3949   -7.1609  -20.5847 C.3     146        0    0.0000
    879 H         227.1035   -5.0127  -20.6620 H       146        0    0.0000
    880 H         227.9858   -5.5631  -19.2418 H       146        0    0.0000
    881 H         228.4122   -7.5103  -20.3688 H       146        0    0.0000
    882 H         226.7098   -7.9151  -20.1780 H       146        0    0.0000
    883 C         227.2040   -7.0908  -22.1391 C.3     147        0    0.0000
    884 C         227.6926   -8.3620  -22.8423 C.3     147        0    0.0000
    885 H         226.1419   -6.9244  -22.3578 H       147        0    0.0000
    886 H         227.7452   -6.2170  -22.5228 H       147        0    0.0000
    887 H         227.0201   -8.6155  -23.6712 H       147        0    0.0000
    888 H         228.6835   -8.1919  -23.2813 H       147        0    0.0000
    889 C         227.7756   -9.5861  -21.8665 C.3     148        0    0.0000
    890 C         228.3999  -10.8177  -22.5316 C.3     148        0    0.0000
    891 H         228.3616   -9.2968  -20.9854 H       148        0    0.0000
    892 H         226.7656   -9.8227  -21.5094 H       148        0    0.0000
    893 H         228.2346  -11.7058  -21.9090 H       148        0    0.0000
    894 H         227.9121  -11.0130  -23.4947 H       148        0    0.0000
    895 C         229.9398  -10.6475  -22.7704 C.3     149        0    0.0000
    896 C         230.4934  -11.6856  -23.7528 C.3     149        0    0.0000
    897 H         230.1294   -9.6347  -23.1469 H       149        0    0.0000
    898 H         230.4581  -10.7276  -21.8068 H       149        0    0.0000
    899 H         229.6721  -12.1473  -24.3147 H       149        0    0.0000
    900 H         231.1435  -11.1972  -24.4893 H       149        0    0.0000
    901 C         231.3074  -12.8132  -23.0294 C.3     150        0    0.0000
    902 C         231.6773  -13.9607  -23.9757 C.3     150        0    0.0000
    903 H         232.2154  -12.3731  -22.5988 H       150        0    0.0000
    904 H         230.7135  -13.1948  -22.1896 H       150        0    0.0000
    905 H         231.4680  -13.6745  -25.0138 H       150        0    0.0000
    906 H         232.7535  -14.1653  -23.9162 H       150        0    0.0000
    907 C         230.8936  -15.2780  -23.6469 C.3     151        0    0.0000
    908 C         231.2317  -16.4131  -24.6196 C.3     151        0    0.0000
    909 H         231.1275  -15.5813  -22.6189 H       151        0    0.0000
    910 H         229.8177  -15.0659  -23.6757 H       151        0    0.0000
    911 H         230.8293  -17.3623  -24.2445 H       151        0    0.0000
    912 H         230.7552  -16.2308  -25.5908 H       151        0    0.0000
    913 C         232.7764  -16.5696  -24.8362 C.3     152        0    0.0000
    914 C         233.1107  -17.6336  -25.8875 C.3     152        0    0.0000
    915 H         233.1913  -15.5997  -25.1375 H       152        0    0.0000
    916 H         233.2435  -16.8280  -23.8778 H       152        0    0.0000
    917 H         232.4435  -17.5306  -26.7523 H       152        0    0.0000
    918 H         234.1326  -17.4875  -26.2588 H       152        0    0.0000
    919 C         232.9823  -19.0896  -25.3208 C.3     153        0    0.0000
    920 C         233.2180  -20.1547  -26.3974 C.3     153        0    0.0000
    921 H         233.7027  -19.2155  -24.5030 H       153        0    0.0000
    922 H         231.9840  -19.2119  -24.8829 H       153        0    0.0000
    923 H         232.5950  -19.9459  -27.2759 H       153        0    0.0000
    924 H         234.2610  -20.1230  -26.7361 H       153        0    0.0000
    925 C         232.8976  -21.6005  -25.8829 C.3     154        0    0.0000
    926 C         233.2762  -22.6779  -26.9051 C.3     154        0    0.0000
    927 H         233.4365  -21.7685  -24.9422 H       154        0    0.0000
    928 H         231.8277  -21.6635  -25.6487 H       154        0    0.0000
    929 H         232.5554  -23.5040  -26.8653 H       154        0    0.0000
    930 H         233.2280  -22.2664  -27.9208 H       154        0    0.0000
    931 C         234.7148  -23.2504  -26.6596 C.3     155        0    0.0000
    932 C         235.1017  -24.3127  -27.6945 C.3     155        0    0.0000
    933 H         235.4339  -22.4222  -26.6839 H       155        0    0.0000
    934 H         234.7585  -23.6759  -25.6494 H       155        0    0.0000
    935 H         234.3222  -25.0825  -27.7527 H       155        0    0.0000
    936 H         235.1715  -23.8592  -28.6910 H       155        0    0.0000
    937 C         236.4683  -25.0019  -27.3560 C.3     156        0    0.0000
    938 C         236.6502  -26.3286  -28.1016 C.3     156        0    0.0000
    939 H         237.2840  -24.3133  -27.6093 H       156        0    0.0000
    940 H         236.5216  -25.1687  -26.2730 H       156        0    0.0000
    941 H         237.7056  -26.4705  -28.3650 H       156        0    0.0000
    942 H         236.3725  -27.1670  -27.4507 H       156        0    0.0000
    943 C         235.7891  -26.3978  -29.4098 C.3     157        0    0.0000
    944 C         235.6914  -27.8226  -29.9661 C.3     157        0    0.0000
    945 H         234.7864  -26.0086  -29.1941 H       157        0    0.0000
    946 H         236.2315  -25.7306  -30.1599 H       157        0    0.0000
    947 H         235.1776  -27.8135  -30.9353 H       157        0    0.0000
    948 H         236.6956  -28.2261  -30.1456 H       157        0    0.0000
    949 C         234.9250  -28.7875  -28.9970 C.3     158        0    0.0000
    950 C         234.9840  -30.2463  -29.4632 C.3     158        0    0.0000
    951 H         235.3564  -28.6958  -27.9925 H       158        0    0.0000
    952 H         233.8811  -28.4583  -28.9227 H       158        0    0.0000
    953 H         234.1594  -30.8171  -29.0184 H       158        0    0.0000
    954 H         234.8528  -30.2992  -30.5511 H       158        0    0.0000
    955 C         236.3391  -30.9370  -29.0835 C.3     159        0    0.0000
    956 C         236.4611  -32.3437  -29.6796 C.3     159        0    0.0000
    957 H         237.1669  -30.3074  -29.4327 H       159        0    0.0000
    958 H         236.4182  -30.9835  -27.9903 H       159        0    0.0000
    959 H         235.4862  -32.8465  -29.6598 H       159        0    0.0000
    960 H         236.7621  -32.2812  -30.7327 H       159        0    0.0000
    961 C         237.5011  -33.2276  -28.9084 C.3     160        0    0.0000
    962 C         237.3849  -34.7119  -29.2722 C.3     160        0    0.0000
    963 H         238.5110  -32.8630  -29.1337 H       160        0    0.0000
    964 H         237.3503  -33.0916  -27.8303 H       160        0    0.0000
    965 H         238.1635  -35.2877  -28.7566 H       160        0    0.0000
    966 H         236.4210  -35.1087  -28.9301 H       160        0    0.0000
    967 C         237.5134  -34.9573  -30.8152 C.3     161        0    0.0000
    968 C         236.9626  -36.3250  -31.2337 C.3     161        0    0.0000
    969 H         236.9802  -34.1587  -31.3458 H       161        0    0.0000
    970 H         238.5696  -34.8739  -31.0997 H       161        0    0.0000
    971 H         237.5029  -37.1240  -30.7109 H       161        0    0.0000
    972 H         235.9093  -36.4123  -30.9398 H       161        0    0.0000
    973 C         237.0777  -36.5643  -32.7786 C.3     162        0    0.0000
    974 C         236.8330  -38.0286  -33.1594 C.3     162        0    0.0000
    975 H         236.3559  -35.9166  -33.2915 H       162        0    0.0000
    976 H         238.0747  -36.2505  -33.1118 H       162        0    0.0000
    977 H         235.9871  -38.4297  -32.5874 H       162        0    0.0000
    978 H         236.5592  -38.1010  -34.2193 H       162        0    0.0000
    979 C         238.0904  -38.9280  -32.8998 C.3     163        0    0.0000
    980 C         237.7239  -40.4083  -32.7458 C.3     163        0    0.0000
    981 H         238.7948  -38.7994  -33.7309 H       163        0    0.0000
    982 H         238.6003  -38.5708  -31.9965 H       163        0    0.0000
    983 H         237.1304  -40.5560  -31.8350 H       163        0    0.0000
    984 H         237.0966  -40.7299  -33.5863 H       163        0    0.0000
    985 C         238.9902  -41.3299  -32.6787 C.3     164        0    0.0000
    986 C         238.6754  -42.7072  -32.0844 C.3     164        0    0.0000
    987 H         239.4003  -41.4415  -33.6901 H       164        0    0.0000
    988 H         239.7608  -40.8290  -32.0797 H       164        0    0.0000
    989 H         239.6020  -43.2780  -31.9462 H       164        0    0.0000
    990 H         238.2239  -42.5939  -31.0910 H       164        0    0.0000
    991 C         237.7014  -43.5366  -32.9905 C.3     165        0    0.0000
    992 C         237.1249  -44.7548  -32.2606 C.3     165        0    0.0000
    993 H         236.8890  -42.8815  -33.3287 H       165        0    0.0000
    994 H         238.2420  -43.8578  -33.8894 H       165        0    0.0000
    995 H         237.9022  -45.5180  -32.1305 H       165        0    0.0000
    996 H         236.7931  -44.4684  -31.2549 H       165        0    0.0000
    997 C         235.9160  -45.3909  -33.0295 C.3     166        0    0.0000
    998 C         236.0584  -46.9093  -33.1816 C.3     166        0    0.0000
    999 H         234.9899  -45.1519  -32.4921 H       166        0    0.0000
   1000 H         235.8376  -44.9196  -34.0171 H       166        0    0.0000
   1001 H         235.7142  -47.2217  -34.1753 H       166        0    0.0000
   1002 H         237.1145  -47.1972  -33.1091 H       166        0    0.0000
   1003 C         235.2450  -47.6941  -32.0953 C.3     167        0    0.0000
   1004 C         235.8730  -49.0536  -31.7691 C.3     167        0    0.0000
   1005 H         235.1836  -47.0807  -31.1878 H       167        0    0.0000
   1006 H         234.2171  -47.8307  -32.4534 H       167        0    0.0000
   1007 H         236.9277  -49.0629  -32.0708 H       167        0    0.0000
   1008 H         235.8537  -49.2267  -30.6860 H       167        0    0.0000
   1009 C         235.1327  -50.2366  -32.4832 C.3     168        0    0.0000
   1010 C         236.0447  -51.4505  -32.6927 C.3     168        0    0.0000
   1011 H         234.2596  -50.5212  -31.8830 H       168        0    0.0000
   1012 H         234.7497  -49.8829  -33.4484 H       168        0    0.0000
   1013 H         236.6718  -51.3012  -33.5804 H       168        0    0.0000
   1014 H         236.7264  -51.5604  -31.8402 H       168        0    0.0000
   1015 C         235.2331  -52.7805  -32.8653 C.3     169        0    0.0000
   1016 C         236.1241  -54.0229  -32.7569 C.3     169        0    0.0000
   1017 H         234.4448  -52.8153  -32.1031 H       169        0    0.0000
   1018 H         234.7288  -52.7632  -33.8394 H       169        0    0.0000
   1019 H         236.8581  -54.0317  -33.5722 H       169        0    0.0000
   1020 H         236.6942  -53.9963  -31.8200 H       169        0    0.0000
   1021 C         235.2968  -55.3535  -32.8074 C.3     170        0    0.0000
   1022 C         236.1951  -56.5945  -32.8545 C.3     170        0    0.0000
   1023 H         234.6419  -55.3963  -31.9283 H       170        0    0.0000
   1024 H         234.6420  -55.3296  -33.6872 H       170        0    0.0000
   1025 H         236.7647  -56.6111  -33.7919 H       170        0    0.0000
   1026 H         236.9294  -56.5585  -32.0403 H       170        0    0.0000
   1027 C         235.3757  -57.9258  -32.7375 C.3     171        0    0.0000
   1028 C         236.2337  -59.1630  -33.0237 C.3     171        0    0.0000
   1029 H         234.9474  -57.9900  -31.7295 H       171        0    0.0000
   1030 H         234.5312  -57.8838  -33.4365 H       171        0    0.0000
   1031 H         236.5325  -59.1777  -34.0792 H       171        0    0.0000
   1032 H         237.1586  -59.1238  -32.4350 H       171        0    0.0000
   1033 C         235.4807  -60.4977  -32.6932 C.3     172        0    0.0000
   1034 C         236.1813  -61.7231  -33.2903 C.3     172        0    0.0000
   1035 H         235.4059  -60.6009  -31.6036 H       172        0    0.0000
   1036 H         234.4543  -60.4283  -33.0743 H       172        0    0.0000
   1037 H         236.0974  -61.7086  -34.3841 H       172        0    0.0000
   1038 H         237.2527  -61.6951  -33.0562 H       172        0    0.0000
   1039 C         235.5822  -63.0693  -32.7554 C.3     173        0    0.0000
   1040 C         236.0217  -64.2745  -33.5941 C.3     173        0    0.0000
   1041 H         235.8921  -63.2043  -31.7117 H       173        0    0.0000
   1042 H         234.4878  -62.9926  -32.7517 H       173        0    0.0000
   1043 H         235.5599  -64.2295  -34.5882 H       173        0    0.0000
   1044 H         237.1073  -64.2489  -33.7496 H       173        0    0.0000
   1045 C         235.6397  -65.6378  -32.9209 C.3     174        0    0.0000
   1046 C         235.6838  -66.8069  -33.9110 C.3     174        0    0.0000
   1047 H         236.3273  -65.8251  -32.0868 H       174        0    0.0000
   1048 H         234.6357  -65.5492  -32.4878 H       174        0    0.0000
   1049 H         234.8774  -66.7063  -34.6480 H       174        0    0.0000
   1050 H         236.6267  -66.7900  -34.4714 H       174        0    0.0000
   1051 C         235.5453  -68.1956  -33.1969 C.3     175        0    0.0000
   1052 C         235.2126  -69.3236  -34.1799 C.3     175        0    0.0000
   1053 H         236.4825  -68.4183  -32.6720 H       175        0    0.0000
   1054 H         234.7643  -68.1225  -32.4300 H       175        0    0.0000
   1055 H         234.2019  -69.1850  -34.5833 H       175        0    0.0000
   1056 H         235.8999  -69.2927  -35.0344 H       175        0    0.0000
   1057 C         235.3004  -70.7390  -33.5117 C.3     176        0    0.0000
   1058 C         234.5714  -71.8125  -34.3273 C.3     176        0    0.0000
   1059 H         236.3570  -71.0093  -33.3935 H       176        0    0.0000
   1060 H         234.8754  -70.6803  -32.5020 H       176        0    0.0000
   1061 H         233.4918  -71.6174  -34.3260 H       176        0    0.0000
   1062 H         234.8969  -71.7752  -35.3743 H       176        0    0.0000
   1063 C         234.8247  -73.2558  -33.7704 C.3     177        0    0.0000
   1064 C         233.8786  -74.2912  -34.3884 C.3     177        0    0.0000
   1065 H         235.8674  -73.5333  -33.9688 H       177        0    0.0000
   1066 H         234.7048  -73.2402  -32.6801 H       177        0    0.0000
   1067 H         232.8421  -74.0696  -34.1056 H       177        0    0.0000
   1068 H         233.9250  -74.2369  -35.4832 H       177        0    0.0000
   1069 C         234.2233  -75.7532  -33.9399 C.3     178        0    0.0000
   1070 C         233.1424  -76.7578  -34.3540 C.3     178        0    0.0000
   1071 H         235.1888  -76.0385  -34.3758 H       178        0    0.0000
   1072 H         234.3528  -75.7677  -32.8506 H       178        0    0.0000
   1073 H         232.1889  -76.5033  -33.8748 H       178        0    0.0000
   1074 H         232.9747  -76.7050  -35.4369 H       178        0    0.0000
   1075 C         233.5223  -78.2302  -33.9728 C.3     179        0    0.0000
   1076 C         232.4244  -79.2301  -34.3517 C.3     179        0    0.0000
   1077 H         234.4613  -78.4943  -34.4749 H       179        0    0.0000
   1078 H         233.7178  -78.2770  -32.8943 H       179        0    0.0000
   1079 H         231.4884  -78.9726  -33.8407 H       179        0    0.0000
   1080 H         232.2208  -79.1752  -35.4283 H       179        0    0.0000
   1081 C         232.8112  -80.7044  -33.9852 C.3     180        0    0.0000
   1082 C         231.7382  -81.7106  -34.4156 C.3     180        0    0.0000
   1083 H         233.7684  -80.9479  -34.4626 H       180        0    0.0000
   1084 H         232.9740  -80.7684  -32.9022 H       180        0    0.0000
   1085 H         230.7838  -81.4739  -33.9291 H       180        0    0.0000
   1086 H         231.5670  -81.6385  -35.4969 H       180        0    0.0000
   1087 C         232.1324  -83.1864  -34.0638 C.3     181        0    0.0000
   1088 C         231.0098  -84.1796  -34.3837 C.3     181        0    0.0000
   1089 H         233.0398  -83.4523  -34.6202 H       181        0    0.0000
   1090 H         232.3893  -83.2395  -32.9985 H       181        0    0.0000
   1091 H         230.1063  -83.9213  -33.8174 H       181        0    0.0000
   1092 H         230.7440  -84.1173  -35.4463 H       181        0    0.0000
   1093 C         231.4108  -85.6576  -34.0489 C.3     182        0    0.0000
   1094 C         230.2541  -86.6380  -34.2720 C.3     182        0    0.0000
   1095 H         232.2691  -85.9407  -34.6708 H       182        0    0.0000
   1096 H         231.7481  -85.7049  -33.0061 H       182        0    0.0000
   1097 H         229.3831  -86.3335  -33.6786 H       182        0    0.0000
   1098 H         229.9415  -86.6181  -35.3234 H       182        0    0.0000
   1099 C         230.6387  -88.1082  -33.8871 C.3     183        0    0.0000
   1100 C         229.8815  -89.1449  -34.7243 C.3     183        0    0.0000
   1101 H         231.7204  -88.2365  -34.0179 H       183        0    0.0000
   1102 H         230.4301  -88.2607  -32.8209 H       183        0    0.0000
   1103 H         228.8003  -89.0284  -34.5792 H       183        0    0.0000
   1104 H         230.0756  -88.9810  -35.7915 H       183        0    0.0000
   1105 C         230.2851  -90.6145  -34.3571 C.3     184        0    0.0000
   1106 C         229.0643  -91.5094  -34.1170 C.3     184        0    0.0000
   1107 H         230.8992  -91.0256  -35.1680 H       184        0    0.0000
   1108 H         230.9185  -90.5940  -33.4616 H       184        0    0.0000
   1109 H         228.5175  -91.1693  -33.2288 H       184        0    0.0000
   1110 H         228.3698  -91.4333  -34.9628 H       184        0    0.0000
   1111 C         229.4596  -93.0138  -33.9216 C.3     185        0    0.0000
   1112 C         228.8276  -93.6219  -32.6647 C.3     185        0    0.0000
   1113 H         229.1500  -93.5789  -34.8095 H       185        0    0.0000
   1114 H         230.5528  -93.0878  -33.8665 H       185        0    0.0000
   1115 H         228.8077  -92.8799  -31.8570 H       185        0    0.0000
   1116 H         227.7849  -93.8985  -32.8642 H       185        0    0.0000
   1117 C         229.6005  -94.8913  -32.1658 C.3     186        0    0.0000
   1118 C         228.8582  -96.1907  -32.4967 C.3     186        0    0.0000
   1119 H         230.5976  -94.9007  -32.6234 H       186        0    0.0000
   1120 H         229.7519  -94.8099  -31.0823 H       186        0    0.0000
   1121 H         228.0153  -96.3281  -31.8081 H       186        0    0.0000
   1122 H         228.4339  -96.1348  -33.5068 H       186        0    0.0000
   1123 C         229.7918  -97.4470  -32.4096 C.3     187        0    0.0000
   1124 C         229.1758  -98.6764  -33.0863 C.3     187        0    0.0000
   1125 H         230.7552  -97.2045  -32.8751 H       187        0    0.0000
   1126 H         229.9974  -97.6622  -31.3537 H       187        0    0.0000
   1127 H         228.0843  -98.5751  -33.1289 H       187        0    0.0000
   1128 H         229.5260  -98.7500  -34.1234 H       187        0    0.0000
   1129 C         229.5309 -100.0071  -32.3375 C.3     188        0    0.0000
   1130 C         228.5773 -101.1506  -32.7012 C.3     188        0    0.0000
   1131 H         230.5633 -100.2860  -32.5823 H       188        0    0.0000
   1132 H         229.5023  -99.8229  -31.2564 H       188        0    0.0000
   1133 H         227.5475 -100.8799  -32.4371 H       188        0    0.0000
   1134 H         228.5903 -101.3208  -33.7849 H       188        0    0.0000
   1135 C         228.9502 -102.4888  -31.9750 C.3     189        0    0.0000
   1136 C         228.0912 -103.6661  -32.4496 C.3     189        0    0.0000
   1137 H         230.0117 -102.7027  -32.1508 H       189        0    0.0000
   1138 H         228.8320 -102.3490  -30.8933 H       189        0    0.0000
   1139 H         227.0365 -103.3678  -32.4956 H       189        0    0.0000
   1140 H         228.3809 -103.9570  -33.4669 H       189        0    0.0000
   1141 C         228.2228 -104.9143  -31.5103 C.3     190        0    0.0000
   1142 C         227.2755 -106.0488  -31.9159 C.3     190        0    0.0000
   1143 H         229.2618 -105.2656  -31.5326 H       190        0    0.0000
   1144 H         228.0174 -104.6035  -30.4785 H       190        0    0.0000
   1145 H         226.2330 -105.7318  -31.7893 H       190        0    0.0000
   1146 H         227.4059 -106.2858  -32.9791 H       190        0    0.0000
   1147 C         227.5134 -107.3505  -31.0752 C.3     191        0    0.0000
   1148 C         226.6179 -108.5078  -31.5308 C.3     191        0    0.0000
   1149 H         228.5692 -107.6367  -31.1579 H       191        0    0.0000
   1150 H         227.3296 -107.1265  -30.0171 H       191        0    0.0000
   1151 H         225.6911 -108.1166  -31.9686 H       191        0    0.0000
   1152 H         227.1194 -109.0842  -32.3180 H       191        0    0.0000
   1153 C         226.2512 -109.4746  -30.3525 C.3     192        0    0.0000
   1154 C         225.3902 -110.6549  -30.8160 C.3     192        0    0.0000
   1155 H         227.1782 -109.8420  -29.8950 H       192        0    0.0000
   1156 H         225.7225 -108.9044  -29.5786 H       192        0    0.0000
   1157 H         224.3301 -110.4435  -30.6289 H       192        0    0.0000
   1158 H         225.4970 -110.7960  -31.8986 H       192        0    0.0000
   1159 C         225.7745 -111.9911  -30.0918 C.3     193        0    0.0000
   1160 C         224.9328 -113.1769  -30.5760 C.3     193        0    0.0000
   1161 H         226.8396 -112.1916  -30.2615 H       193        0    0.0000
   1162 H         225.6477 -111.8563  -29.0105 H       193        0    0.0000
   1163 H         224.6707 -113.0455  -31.6331 H       193        0    0.0000
   1164 H         225.5155 -114.1040  -30.5088 H       193        0    0.0000
   1165 C         223.6141 -113.3477  -29.7458 C.3     194        0    0.0000
   1166 C         222.8397 -114.6105  -30.1389 C.3     194        0    0.0000
   1167 H         223.8692 -113.3796  -28.6793 H       194        0    0.0000
   1168 H         222.9861 -112.4602  -29.8931 H       194        0    0.0000
   1169 H         221.9281 -114.6962  -29.5346 H       194        0    0.0000
   1170 H         222.5186 -114.5443  -31.1858 H       194        0    0.0000
   1171 C         223.6929 -115.9125  -29.9535 C.3     195        0    0.0000
   1172 C         222.8909 -117.1815  -30.2626 C.3     195        0    0.0000
   1173 H         224.5724 -115.8549  -30.6067 H       195        0    0.0000
   1174 H         224.0676 -115.9459  -28.9229 H       195        0    0.0000
   1175 H         222.6093 -117.1996  -31.3227 H       195        0    0.0000
   1176 H         223.5097 -118.0699  -30.0857 H       195        0    0.0000
   1177 C         221.5913 -117.2895  -29.3926 C.3     196        0    0.0000
   1178 C         220.8788 -118.6339  -29.5773 C.3     196        0    0.0000
   1179 H         221.8588 -117.1473  -28.3382 H       196        0    0.0000
   1180 H         220.9171 -116.4666  -29.6603 H       196        0    0.0000
   1181 H         220.4982 -118.7201  -30.6026 H       196        0    0.0000
   1182 H         221.5882 -119.4584  -29.4342 H       196        0    0.0000
   1183 C         219.6848 -118.8156  -28.5780 C.3     197        0    0.0000
   1184 C         218.9417 -120.1384  -28.7953 C.3     197        0    0.0000
   1185 H         220.0711 -118.7653  -27.5525 H       197        0    0.0000
   1186 H         218.9934 -117.9720  -28.6960 H       197        0    0.0000
   1187 H         218.2574 -120.3273  -27.9589 H       197        0    0.0000
   1188 H         218.3242 -120.0787  -29.7002 H       197        0    0.0000
   1189 C         219.9212 -121.3547  -28.9313 C.3     198        0    0.0000
   1190 C         219.1866 -122.6576  -29.2657 C.3     198        0    0.0000
   1191 H         220.6597 -121.1286  -29.7105 H       198        0    0.0000
   1192 H         220.4780 -121.4670  -27.9927 H       198        0    0.0000
   1193 H         218.6705 -122.5618  -30.2290 H       198        0    0.0000
   1194 H         219.9066 -123.4782  -29.3742 H       198        0    0.0000
   1195 C         218.1381 -123.0472  -28.1673 C.3     199        0    0.0000
   1196 C         217.2992 -124.2647  -28.5709 C.3     199        0    0.0000
   1197 H         218.6683 -123.2502  -27.2286 H       199        0    0.0000
   1198 H         217.4852 -122.1857  -27.9804 H       199        0    0.0000
   1199 H         216.6637 -124.0156  -29.4297 H       199        0    0.0000
   1200 H         217.9549 -125.0838  -28.8913 H       199        0    0.0000
   1201 C         216.3897 -124.7740  -27.4001 C.3     200        0    0.0000
   1202 C         215.1587 -125.5323  -27.9086 C.3     200        0    0.0000
   1203 H         216.9860 -125.4210  -26.7449 H       200        0    0.0000
   1204 H         216.0781 -123.9139  -26.7946 H       200        0    0.0000
   1205 H         214.5395 -124.8720  -28.5283 H       200        0    0.0000
   1206 H         215.4691 -126.3665  -28.5499 H       200        0    0.0000
   1207 C         214.2817 -126.0948  -26.7373 C.3     201        0    0.0000
   1208 C         213.3371 -127.2087  -27.2020 C.3     201        0    0.0000
   1209 H         214.9446 -126.4689  -25.9473 H       201        0    0.0000
   1210 H         213.7047 -125.2704  -26.3001 H       201        0    0.0000
   1211 H         212.6319 -126.8179  -27.9460 H       201        0    0.0000
   1212 H         213.9082 -128.0041  -27.6966 H       201        0    0.0000
   1213 C         212.5251 -127.8328  -26.0151 C.3     202        0    0.0000
   1214 C         211.2867 -128.5966  -26.4967 C.3     202        0    0.0000
   1215 H         213.1843 -128.5032  -25.4497 H       202        0    0.0000
   1216 H         212.2287 -127.0300  -25.3288 H       202        0    0.0000
   1217 H         210.6588 -127.9433  -27.1151 H       202        0    0.0000
   1218 H         211.5876 -129.4383  -27.1327 H       202        0    0.0000
   1219 C         210.4267 -129.1449  -25.3063 C.3     203        0    0.0000
   1220 C         209.2207 -129.9591  -25.7877 C.3     203        0    0.0000
   1221 H         211.0657 -129.7632  -24.6638 H       203        0    0.0000
   1222 H         210.0894 -128.2990  -24.6946 H       203        0    0.0000
   1223 H         208.6032 -129.3536  -26.4627 H       203        0    0.0000
   1224 H         209.5598 -130.8279  -26.3654 H       203        0    0.0000
   1225 C         208.3290 -130.4592  -24.5994 C.3     204        0    0.0000
   1226 C         207.0925 -131.2248  -25.0832 C.3     204        0    0.0000
   1227 H         208.9359 -131.0989  -23.9467 H       204        0    0.0000
   1228 H         208.0241 -129.5941  -23.9976 H       204        0    0.0000
   1229 H         206.5072 -130.5994  -25.7686 H       204        0    0.0000
   1230 H         207.3980 -132.1129  -25.6502 H       204        0    0.0000
   1231 C         206.1707 -131.6747  -23.8977 C.3     205        0    0.0000
   1232 C         204.8954 -132.3709  -24.3854 C.3     205        0    0.0000
   1233 H         206.7393 -132.3467  -23.2430 H       205        0    0.0000
   1234 H         205.9122 -130.7938  -23.2969 H       205        0    0.0000
   1235 H         204.3457 -131.7127  -25.0697 H       205        0    0.0000
   1236 H         205.1533 -133.2725  -24.9547 H       205        0    0.0000
   1237 C         203.9489 -132.7737  -23.2024 C.3     206        0    0.0000
   1238 C         202.6424 -133.4067  -23.6936 C.3     206        0    0.0000
   1239 H         204.4817 -133.4724  -22.5455 H       206        0    0.0000
   1240 H         203.7323 -131.8807  -22.6031 H       206        0    0.0000
   1241 H         202.1366 -132.7302  -24.3937 H       206        0    0.0000
   1242 H         202.8562 -134.3298  -24.2465 H       206        0    0.0000
   1243 C         201.6633 -133.7387  -22.5152 C.3     207        0    0.0000
   1244 C         200.5248 -134.6680  -22.9502 C.3     207        0    0.0000
   1245 H         202.2346 -134.1998  -21.7001 H       207        0    0.0000
   1246 H         201.2533 -132.8005  -22.1211 H       207        0    0.0000
   1247 H         199.9694 -134.2184  -23.7826 H       207        0    0.0000
   1248 H         200.9339 -135.6163  -23.3203 H       207        0    0.0000
   1249 C         199.5254 -134.9708  -21.7811 C.3     208        0    0.0000
   1250 C         198.0635 -134.7948  -22.2063 C.3     208        0    0.0000
   1251 H         199.6938 -135.9959  -21.4285 H       208        0    0.0000
   1252 H         199.7548 -134.3063  -20.9388 H       208        0    0.0000
   1253 H         197.9161 -133.7994  -22.6435 H       208        0    0.0000
   1254 H         197.8085 -135.5225  -22.9867 H       208        0    0.0000
   1255 C         197.0703 -134.9717  -21.0064 C.3     209        0    0.0000
   1256 C         196.1887 -136.2159  -21.1607 C.3     209        0    0.0000
   1257 H         197.6477 -135.0328  -20.0756 H       209        0    0.0000
   1258 H         196.4441 -134.0741  -20.9304 H       209        0    0.0000
   1259 H         195.6941 -136.2074  -22.1399 H       209        0    0.0000
   1260 H         196.8071 -137.1215  -21.1280 H       209        0    0.0000
   1261 C         195.0941 -136.3109  -20.0426 C.3     210        0    0.0000
   1262 C         195.4420 -137.3555  -18.9764 C.3     210        0    0.0000
   1263 H         194.9767 -135.3240  -19.5780 H       210        0    0.0000
   1264 H         194.1320 -136.5558  -20.5094 H       210        0    0.0000
   1265 H         194.9370 -138.3035  -19.1997 H       210        0    0.0000
   1266 H         196.5194 -137.5619  -18.9893 H       210        0    0.0000
   1267 C         195.0335 -136.8926  -17.5354 C.3     211        0    0.0000
   1268 C         193.5760 -137.2344  -17.2069 C.3     211        0    0.0000
   1269 H         195.7042 -137.3668  -16.8083 H       211        0    0.0000
   1270 H         195.1938 -135.8104  -17.4530 H       211        0    0.0000
   1271 H         192.9515 -137.1180  -18.1013 H       211        0    0.0000
   1272 H         193.4958 -138.2850  -16.9013 H       211        0    0.0000
   1273 C         192.9966 -136.3303  -16.0648 C.3     212        0    0.0000
   1274 C         191.4979 -136.5627  -15.8439 C.3     212        0    0.0000
   1275 H         193.5492 -136.5326  -15.1390 H       212        0    0.0000
   1276 H         193.1809 -135.2789  -16.3183 H       212        0    0.0000
   1277 H         190.9856 -135.6033  -15.6998 H       212        0    0.0000
   1278 H         191.0539 -137.0264  -16.7335 H       212        0    0.0000
   1279 C         191.2153 -137.4778  -14.6028 C.3     213        0    0.0000
   1280 C         189.7217 -137.7735  -14.4272 C.3     213        0    0.0000
   1281 H         191.7730 -138.4152  -14.7203 H       213        0    0.0000
   1282 H         191.6097 -136.9870  -13.7044 H       213        0    0.0000
   1283 H         189.2913 -138.1133  -15.3774 H       213        0    0.0000
   1284 H         189.5818 -138.5900  -13.7080 H       213        0    0.0000
   1285 C         188.9223 -136.5199  -13.9301 C.3     214        0    0.0000
   1286 C         187.4075 -136.7527  -13.9474 C.3     214        0    0.0000
   1287 H         189.2529 -136.2697  -12.9144 H       214        0    0.0000
   1288 H         189.1784 -135.6626  -14.5650 H       214        0    0.0000
   1289 H         186.8913 -135.8452  -14.2843 H       214        0    0.0000
   1290 H         187.1565 -137.5430  -14.6657 H       214        0    0.0000
   1291 C         186.8523 -137.1560  -12.5379 C.3     215        0    0.0000
   1292 C         185.5223 -137.9118  -12.6321 C.3     215        0    0.0000
   1293 H         187.6008 -137.7740  -12.0267 H       215        0    0.0000
   1294 H         186.7274 -136.2486  -11.9342 H       215        0    0.0000
   1295 H         184.9912 -137.6259  -13.5484 H       215        0    0.0000
   1296 H         185.7069 -138.9912  -12.6987 H       215        0    0.0000
   1297 C         184.5923 -137.6333  -11.4012 C.3     216        0    0.0000
   1298 C         183.1066 -137.7635  -11.7546 C.3     216        0    0.0000
   1299 H         184.8505 -138.3337  -10.5973 H       216        0    0.0000
   1300 H         184.8016 -136.6259  -11.0207 H       216        0    0.0000
   1301 H         182.8633 -137.1121  -12.6031 H       216        0    0.0000
   1302 H         182.8838 -138.7899  -12.0714 H       216        0    0.0000
   1303 C         182.1747 -137.3931  -10.5497 C.3     217        0    0.0000
   1304 C         180.9405 -138.2984  -10.4702 C.3     217        0    0.0000
   1305 H         182.7534 -137.4636   -9.6203 H       217        0    0.0000
   1306 H         181.8665 -136.3450  -10.6501 H       217        0    0.0000
   1307 H         180.3255 -138.1757  -11.3703 H       217        0    0.0000
   1308 H         181.2476 -139.3512  -10.4395 H       217        0    0.0000
   1309 C         180.0592 -137.9922   -9.2105 C.3     218        0    0.0000
   1310 C         178.5743 -138.2817   -9.4561 C.3     218        0    0.0000
   1311 H         180.4252 -138.5926   -8.3684 H       218        0    0.0000
   1312 H         180.1961 -136.9403   -8.9304 H       218        0    0.0000
   1313 H         178.2162 -137.7049  -10.3179 H       218        0    0.0000
   1314 H         178.4337 -139.3407   -9.7054 H       218        0    0.0000
   1315 C         177.6873 -137.9336   -8.2113 C.3     219        0    0.0000
   1316 C         176.3113 -138.6058   -8.2723 C.3     219        0    0.0000
   1317 H         178.2172 -138.2431   -7.3019 H       219        0    0.0000
   1318 H         177.5716 -136.8442   -8.1531 H       219        0    0.0000
   1319 H         175.7756 -138.2849   -9.1743 H       219        0    0.0000
   1320 H         176.4273 -139.6943   -8.3453 H       219        0    0.0000
   1321 C         175.4320 -138.2743   -7.0176 C.3     220        0    0.0000
   1322 C         173.9579 -138.6368   -7.2291 C.3     220        0    0.0000
   1323 H         175.8322 -138.8167   -6.1520 H       220        0    0.0000
   1324 H         175.5277 -137.2051   -6.7912 H       220        0    0.0000
   1325 H         173.5662 -138.1185   -8.1132 H       220        0    0.0000
   1326 H         173.8592 -139.7118   -7.4246 H       220        0    0.0000
   1327 C         173.0710 -138.2648   -5.9911 C.3     221        0    0.0000
   1328 C         171.6195 -138.7284   -6.1562 C.3     221        0    0.0000
   1329 H         173.5103 -138.7164   -5.0930 H       221        0    0.0000
   1330 H         173.1046 -137.1779   -5.8459 H       221        0    0.0000
   1331 H         171.1806 -138.2777   -7.0549 H       221        0    0.0000
   1332 H         171.5859 -139.8155   -6.3004 H       221        0    0.0000
   1333 C         170.7323 -138.3552   -4.9188 C.3     222        0    0.0000
   1334 C         169.2656 -138.7547   -5.1141 C.3     222        0    0.0000
   1335 H         171.1414 -138.8489   -4.0286 H       222        0    0.0000
   1336 H         170.8078 -137.2750   -4.7426 H       222        0    0.0000
   1337 H         168.8615 -138.2742   -6.0138 H       222        0    0.0000
   1338 H         169.1886 -139.8373   -5.2736 H       222        0    0.0000
   1339 C         168.3739 -138.3601   -3.8867 C.3     223        0    0.0000
   1340 C         166.9069 -138.7583   -4.0826 C.3     223        0    0.0000
   1341 H         168.7774 -138.8414   -2.9872 H       223        0    0.0000
   1342 H         168.4517 -137.2776   -3.7265 H       223        0    0.0000
   1343 H         166.5093 -138.2933   -4.9932 H       223        0    0.0000
   1344 H         166.8271 -139.8434   -4.2223 H       223        0    0.0000
   1345 C         166.0099 -138.3380   -2.8675 C.3     224        0    0.0000
   1346 C         164.5428 -138.7360   -3.0636 C.3     224        0    0.0000
   1347 H         166.4074 -138.8032   -1.9570 H       224        0    0.0000
   1348 H         166.0898 -137.2529   -2.7276 H       224        0    0.0000
   1349 H         164.1490 -138.2809   -3.9808 H       224        0    0.0000
   1350 H         164.4616 -139.8226   -3.1910 H       224        0    0.0000
   1351 C         163.6426 -138.3000   -1.8565 C.3     225        0    0.0000
   1352 C         162.1700 -138.6686   -2.0673 C.3     225        0    0.0000
   1353 H         164.0221 -138.7744   -0.9430 H       225        0    0.0000
   1354 H         163.7426 -137.2169   -1.7139 H       225        0    0.0000
   1355 H         161.7938 -138.2039   -2.9871 H       225        0    0.0000
   1356 H         162.0687 -139.7531   -2.1981 H       225        0    0.0000
   1357 C         161.2671 -138.2179   -0.8676 C.3     226        0    0.0000
   1358 C         159.7891 -138.5541   -1.0946 C.3     226        0    0.0000
   1359 H         161.6271 -138.7036    0.0478 H       226        0    0.0000
   1360 H         161.3888 -137.1376   -0.7199 H       226        0    0.0000
   1361 H         159.4343 -138.0842   -2.0202 H       226        0    0.0000
   1362 H         159.6651 -139.6366   -1.2232 H       226        0    0.0000
   1363 C         158.8826 -138.0792    0.0929 C.3     227        0    0.0000
   1364 C         157.3935 -138.3146   -0.1829 C.3     227        0    0.0000
   1365 H         159.1853 -138.6110    1.0034 H       227        0    0.0000
   1366 H         159.0676 -137.0132    0.2745 H       227        0    0.0000
   1367 H         157.0832 -137.7562   -1.0748 H       227        0    0.0000
   1368 H         157.2137 -139.3755   -0.3971 H       227        0    0.0000
   1369 C         156.4903 -137.8825    1.0233 C.3     228        0    0.0000
   1370 C         155.0119 -138.2117    0.7891 C.3     228        0    0.0000
   1371 H         156.8483 -138.3845    1.9307 H       228        0    0.0000
   1372 H         156.6140 -136.8052    1.1896 H       228        0    0.0000
   1373 H         154.6685 -137.7547   -0.1473 H       228        0    0.0000
   1374 H         154.8808 -139.2952    0.6774 H       228        0    0.0000
   1375 C         154.0987 -137.7104    1.9606 C.3     229        0    0.0000
   1376 C         152.7382 -138.4158    1.9793 C.3     229        0    0.0000
   1377 H         154.6210 -137.8750    2.9112 H       229        0    0.0000
   1378 H         153.9592 -136.6268    1.8613 H       229        0    0.0000
   1379 H         152.2056 -138.2310    1.0382 H       229        0    0.0000
   1380 H         152.8784 -139.5014    2.0539 H       229        0    0.0000
   1381 C         151.8383 -137.9394    3.1712 C.3     230        0    0.0000
   1382 C         150.4252 -137.5587    2.7160 C.3     230        0    0.0000
   1383 H         151.7895 -138.7402    3.9195 H       230        0    0.0000
   1384 H         152.3204 -137.0825    3.6577 H       230        0    0.0000
   1385 H         150.4738 -136.7558    1.9699 H       230        0    0.0000
   1386 H         149.9442 -138.4147    2.2267 H       230        0    0.0000
   1387 C         149.5240 -137.0863    3.9085 C.3     231        0    0.0000
   1388 C         148.0542 -137.4758    3.7156 C.3     231        0    0.0000
   1389 H         149.9099 -137.5230    4.8380 H       231        0    0.0000
   1390 H         149.6144 -135.9978    4.0106 H       231        0    0.0000
   1391 H         147.7507 -137.2963    2.6768 H       231        0    0.0000
   1392 H         147.9219 -138.5489    3.9015 H       231        0    0.0000
   1393 C         147.0981 -136.6765    4.6667 C.3     232        0    0.0000
   1394 C         146.6963 -137.4887    5.9028 C.3     232        0    0.0000
   1395 H         147.5977 -135.7489    4.9722 H       232        0    0.0000
   1396 H         146.2040 -136.3820    4.1032 H       232        0    0.0000
   1397 H         145.8440 -138.1376    5.6658 H       232        0    0.0000
   1398 H         147.5200 -138.1480    6.2038 H       232        0    0.0000
   1399 C         146.3125 -136.5734    7.1161 C.3     233        0    0.0000
   1400 C         144.8479 -136.7461    7.5336 C.3     233        0    0.0000
   1401 H         146.9741 -136.8080    7.9592 H       233        0    0.0000
   1402 H         146.5057 -135.5280    6.8454 H       233        0    0.0000
   1403 H         144.1910 -136.6126    6.6652 H       233        0    0.0000
   1404 H         144.6796 -137.7656    7.9022 H       233        0    0.0000
   1405 C         144.4241 -135.7292    8.6488 C.3     234        0    0.0000
   1406 C         142.9036 -135.5540    8.7278 C.3     234        0    0.0000
   1407 H         144.8131 -136.0794    9.6130 H       234        0    0.0000
   1408 H         144.9041 -134.7634    8.4476 H       234        0    0.0000
   1409 H         142.5470 -134.9711    7.8696 H       234        0    0.0000
   1410 H         142.4090 -136.5317    8.6720 H       234        0    0.0000
   1411 C         142.4560 -134.8359   10.0475 C.3     235        0    0.0000
   1412 C         140.9413 -134.9158   10.2672 C.3     235        0    0.0000
   1413 H         142.9835 -135.2918   10.8945 H       235        0    0.0000
   1414 H         142.7752 -133.7872   10.0051 H       235        0    0.0000
   1415 H         140.4127 -134.6574    9.3412 H       235        0    0.0000
   1416 H         140.6514 -135.9434   10.5191 H       235        0    0.0000
   1417 C         140.4555 -133.9591   11.4101 C.3     236        0    0.0000
   1418 C         138.9274 -133.9129   11.5186 C.3     236        0    0.0000
   1419 H         140.8901 -134.2939   12.3601 H       236        0    0.0000
   1420 H         140.8497 -132.9530   11.2205 H       236        0    0.0000
   1421 H         138.5380 -133.0417   10.9774 H       236        0    0.0000
   1422 H         138.4896 -134.8000   11.0442 H       236        0    0.0000
   1423 C         138.4392 -133.8430   13.0066 C.3     237        0    0.0000
   1424 C         136.9114 -133.8866   13.1194 C.3     237        0    0.0000
   1425 H         138.8816 -134.6783   13.5635 H       237        0    0.0000
   1426 H         138.8239 -132.9220   13.4620 H       237        0    0.0000
   1427 H         136.4965 -134.5529   12.3530 H       237        0    0.0000
   1428 H         136.6177 -134.3027   14.0911 H       237        0    0.0000
   1429 C         136.2632 -132.4681   12.9604 C.3     238        0    0.0000
   1430 C         134.7317 -132.5230   12.9877 C.3     238        0    0.0000
   1431 H         136.6307 -131.8192   13.7649 H       238        0    0.0000
   1432 H         136.6070 -132.0260   12.0170 H       238        0    0.0000
   1433 H         134.3156 -131.7371   12.3452 H       238        0    0.0000
   1434 H         134.3823 -133.4801   12.5811 H       238        0    0.0000
   1435 C         134.1567 -132.3490   14.4356 C.3     239        0    0.0000
   1436 C         132.6863 -132.7707   14.5312 C.3     239        0    0.0000
   1437 H         134.7640 -132.9418   15.1308 H       239        0    0.0000
   1438 H         134.2675 -131.2998   14.7364 H       239        0    0.0000
   1439 H         132.1957 -132.6479   13.5577 H       239        0    0.0000
   1440 H         132.6161 -133.8351   14.7874 H       239        0    0.0000
   1441 C         131.8986 -131.9402   15.6023 C.3     240        0    0.0000
   1442 C         130.4170 -131.7845   15.2421 C.3     240        0    0.0000
   1443 H         131.9989 -132.4343   16.5767 H       240        0    0.0000
   1444 H         132.3678 -130.9534   15.6998 H       240        0    0.0000
   1445 H         130.3172 -131.3757   14.2289 H       240        0    0.0000
   1446 H         129.9263 -132.7656   15.2357 H       240        0    0.0000
   1447 C         129.6578 -130.8462   16.2425 C.3     241        0    0.0000
   1448 C         128.2165 -131.3053   16.4893 C.3     241        0    0.0000
   1449 H         130.2109 -130.8176   17.1895 H       241        0    0.0000
   1450 H         129.6640 -129.8245   15.8430 H       241        0    0.0000
   1451 H         127.6427 -131.2618   15.5553 H       241        0    0.0000
   1452 H         128.2060 -132.3521   16.8171 H       241        0    0.0000
   1453 C         127.4911 -130.4304   17.5691 C.3     242        0    0.0000
   1454 C         125.9745 -130.3806   17.3531 C.3     242        0    0.0000
   1455 H         127.7163 -130.8366   18.5629 H       242        0    0.0000
   1456 H         127.9085 -129.4163   17.5412 H       242        0    0.0000
   1457 H         125.7505 -130.0366   16.3357 H       242        0    0.0000
   1458 H         125.5480 -131.3870   17.4464 H       242        0    0.0000
   1459 C         125.2596 -129.4320   18.3761 C.3     243        0    0.0000
   1460 C         123.7406 -129.6352   18.3930 C.3     243        0    0.0000
   1461 H         125.6744 -129.6127   19.3755 H       243        0    0.0000
   1462 H         125.4972 -128.3921   18.1197 H       243        0    0.0000
   1463 H         123.3234 -129.4368   17.3979 H       243        0    0.0000
   1464 H         123.5033 -130.6793   18.6316 H       243        0    0.0000
   1465 C         123.0282 -128.7046   19.4342 C.3     244        0    0.0000
   1466 C         121.5034 -128.7211   19.2803 C.3     244        0    0.0000
   1467 H         123.3078 -129.0260   20.4452 H       244        0    0.0000
   1468 H         123.4075 -127.6824   19.3125 H       244        0    0.0000
   1469 H         121.2254 -128.4366   18.2579 H       244        0    0.0000
   1470 H         121.1202 -129.7366   19.4400 H       244        0    0.0000
   1471 C         120.7943 -127.7496   20.2857 C.3     245        0    0.0000
   1472 C         119.2680 -127.7874   20.1513 C.3     245        0    0.0000
   1473 H         121.0888 -128.0210   21.3071 H       245        0    0.0000
   1474 H         121.1621 -126.7308   20.1120 H       245        0    0.0000
   1475 H         118.9746 -127.5393   19.1237 H       245        0    0.0000
   1476 H         118.8980 -128.8011   20.3486 H       245        0    0.0000
   1477 C         118.5603 -126.7912   21.1333 C.3     246        0    0.0000
   1478 C         117.0364 -126.7988   20.9701 C.3     246        0    0.0000
   1479 H         118.8297 -127.0580   22.1627 H       246        0    0.0000
   1480 H         118.9525 -125.7819   20.9565 H       246        0    0.0000
   1481 H         116.7677 -126.5558   19.9346 H       246        0    0.0000
   1482 H         116.6416 -127.8026   21.1707 H       246        0    0.0000
   1483 C         116.3311 -125.7778   21.9280 C.3     247        0    0.0000
   1484 C         114.8162 -125.7207   21.7024 C.3     247        0    0.0000
   1485 H         116.5465 -126.0599   22.9660 H       247        0    0.0000
   1486 H         116.7721 -124.7852   21.7733 H       247        0    0.0000
   1487 H         114.6008 -125.4849   20.6529 H       247        0    0.0000
   1488 H         114.3688 -126.7021   21.9031 H       247        0    0.0000
   1489 C         114.1198 -124.6520   22.6136 C.3     248        0    0.0000
   1490 C         112.5936 -124.6766   22.4751 C.3     248        0    0.0000
   1491 H         114.4059 -124.8361   23.6566 H       248        0    0.0000
   1492 H         114.5053 -123.6589   22.3518 H       248        0    0.0000
   1493 H         112.3087 -124.5327   21.4255 H       248        0    0.0000
   1494 H         112.2043 -125.6573   22.7756 H       248        0    0.0000
   1495 C         111.9004 -123.5704   23.3431 C.3     249        0    0.0000
   1496 C         110.8422 -122.7914   22.5542 C.3     249        0    0.0000
   1497 H         111.4425 -124.0444   24.2201 H       249        0    0.0000
   1498 H         112.6686 -122.8844   23.7209 H       249        0    0.0000
   1499 H         111.2794 -122.3930   21.6302 H       249        0    0.0000
   1500 H         110.0277 -123.4621   22.2536 H       249        0    0.0000
   1501 C         110.2397 -121.6037   23.3810 C.3     250        0    0.0000
   1502 C         108.8303 -121.9122   23.8984 C.3     250        0    0.0000
   1503 H         110.9090 -121.3827   24.2217 H       250        0    0.0000
   1504 H         110.2206 -120.7069   22.7494 H       250        0    0.0000
   1505 H         108.1664 -122.1548   23.0594 H       250        0    0.0000
   1506 H         108.8531 -122.7960   24.5479 H       250        0    0.0000
   1507 C         108.2155 -120.7127   24.6989 C.3     251        0    0.0000
   1508 C         108.0394 -121.0366   26.1865 C.3     251        0    0.0000
   1509 H         108.8657 -119.8372   24.5789 H       251        0    0.0000
   1510 H         107.2478 -120.4497   24.2540 H       251        0    0.0000
   1511 H         107.0123 -121.3703   26.3798 H       251        0    0.0000
   1512 H         108.6989 -121.8656   26.4716 H       251        0    0.0000
   1513 C         108.3514 -119.8043   27.1038 C.3     252        0    0.0000
   1514 C         107.1416 -118.8766   27.2616 C.3     252        0    0.0000
   1515 H         108.6770 -120.1682   28.0862 H       252        0    0.0000
   1516 H         109.1968 -119.2507   26.6769 H       252        0    0.0000
   1517 H         106.4488 -119.0158   26.4225 H       252        0    0.0000
   1518 H         106.5877 -119.1325   28.1733 H       252        0    0.0000
   1519 C         107.5560 -117.3662   27.3294 C.3     253        0    0.0000
   1520 C         106.3422 -116.4304   27.3320 C.3     253        0    0.0000
   1521 H         108.1573 -117.2047   28.2327 H       253        0    0.0000
   1522 H         108.2045 -117.1388   26.4743 H       253        0    0.0000
   1523 H         106.5278 -115.5719   26.6747 H       253        0    0.0000
   1524 H         105.4647 -116.9515   26.9294 H       253        0    0.0000
   1525 C         106.0017 -115.9029   28.7684 C.3     254        0    0.0000
   1526 C         104.7083 -115.0811   28.7939 C.3     254        0    0.0000
   1527 H         105.9167 -116.7594   29.4487 H       254        0    0.0000
   1528 H         106.8406 -115.2954   29.1300 H       254        0    0.0000
   1529 H         104.0647 -115.3664   27.9525 H       254        0    0.0000
   1530 H         104.1437 -115.2965   29.7095 H       254        0    0.0000
   1531 C         104.9824 -113.5394   28.7202 C.3     255        0    0.0000
   1532 C         103.7133 -112.7379   28.4104 C.3     255        0    0.0000
   1533 H         105.4113 -113.2105   29.6749 H       255        0    0.0000
   1534 H         105.7427 -113.3517   27.9520 H       255        0    0.0000
   1535 H         103.6605 -112.5171   27.3370 H       255        0    0.0000
   1536 H         102.8240 -113.3325   28.6538 H       255        0    0.0000
   1537 C         103.6529 -111.3893   29.2072 C.3     256        0    0.0000
   1538 C         102.2170 -110.9886   29.5631 C.3     256        0    0.0000
   1539 H         104.2524 -111.4909   30.1203 H       256        0    0.0000
   1540 H         104.1252 -110.6021   28.6064 H       256        0    0.0000
   1541 H         101.5746 -111.0652   28.6772 H       256        0    0.0000
   1542 H         101.8076 -111.6802   30.3098 H       256        0    0.0000
   1543 C         102.1299 -109.5280   30.1258 C.3     257        0    0.0000
   1544 C         100.8733 -108.7942   29.6446 C.3     257        0    0.0000
   1545 H         102.1445 -109.5699   31.2219 H       257        0    0.0000
   1546 H         103.0277 -108.9770   29.8196 H       257        0    0.0000
   1547 H         100.7563 -108.9195   28.5610 H       257        0    0.0000
   1548 H          99.9811 -109.2309   30.1104 H       257        0    0.0000
   1549 C         100.9170 -107.2623   29.9743 C.3     258        0    0.0000
   1550 C          99.5549 -106.7270   30.4296 C.3     258        0    0.0000
   1551 H         101.6688 -107.0898   30.7544 H       258        0    0.0000
   1552 H         101.2564 -106.7185   29.0840 H       258        0    0.0000
   1553 H          98.8332 -106.7854   29.6055 H       258        0    0.0000
   1554 H          99.1580 -107.3500   31.2407 H       258        0    0.0000
   1555 C          99.6359 -105.2423   30.9262 C.3     259        0    0.0000
   1556 C          98.3667 -104.4492   30.5955 C.3     259        0    0.0000
   1557 H          99.8088 -105.2407   32.0096 H       259        0    0.0000
   1558 H         100.5093 -104.7630   30.4671 H       259        0    0.0000
   1559 H          98.1134 -104.5700   29.5350 H       259        0    0.0000
   1560 H          97.5178 -104.8417   31.1689 H       259        0    0.0000
   1561 C          98.5233 -102.9208   30.9068 C.3     260        0    0.0000
   1562 C          97.1706 -102.2076   31.0103 C.3     260        0    0.0000
   1563 H          99.0816 -102.8062   31.8442 H       260        0    0.0000
   1564 H          99.1321 -102.4601   30.1191 H       260        0    0.0000
   1565 H          96.6293 -102.2879   30.0595 H       260        0    0.0000
   1566 H          96.5463 -102.6937   31.7702 H       260        0    0.0000
   1567 C          97.3250 -100.6914   31.3775 C.3     261        0    0.0000
   1568 C          96.0099  -99.9196   31.2230 C.3     261        0    0.0000
   1569 H          97.6883 -100.6128   32.4097 H       261        0    0.0000
   1570 H          98.0981 -100.2494   30.7368 H       261        0    0.0000
   1571 H          95.6428 -100.0043   30.1927 H       261        0    0.0000
   1572 H          95.2388 -100.3571   31.8692 H       261        0    0.0000
   1573 C          96.1667  -98.4013   31.5804 C.3     262        0    0.0000
   1574 C          94.8752  -97.6117   31.3400 C.3     262        0    0.0000
   1575 H          96.4704  -98.3148   32.6310 H       262        0    0.0000
   1576 H          96.9827  -97.9793   30.9808 H       262        0    0.0000
   1577 H          94.5553  -97.7224   30.2965 H       262        0    0.0000
   1578 H          94.0665  -98.0150   31.9620 H       262        0    0.0000
   1579 C          95.0440  -96.0858   31.6577 C.3     263        0    0.0000
   1580 C          93.7138  -95.3277   31.5890 C.3     263        0    0.0000
   1581 H          95.4866  -95.9793   32.6558 H       263        0    0.0000
   1582 H          95.7602  -95.6540   30.9477 H       263        0    0.0000
   1583 H          93.2652  -95.4444   30.5947 H       263        0    0.0000
   1584 H          93.0016  -95.7517   32.3077 H       263        0    0.0000
   1585 C          93.8852  -93.7987   31.8896 C.3     264        0    0.0000
   1586 C          92.6505  -92.9853   31.4858 C.3     264        0    0.0000
   1587 H          94.0872  -93.6693   32.9601 H       264        0    0.0000
   1588 H          94.7697  -93.4303   31.3553 H       264        0    0.0000
   1589 H          92.4579  -93.1020   30.4121 H       264        0    0.0000
   1590 H          91.7632  -93.3642   32.0080 H       264        0    0.0000
   1591 C          92.8130  -91.4596   31.8072 C.3     265        0    0.0000
   1592 C          92.4495  -90.5723   30.6116 C.3     265        0    0.0000
   1593 H          92.1794  -91.2100   32.6673 H       265        0    0.0000
   1594 H          93.8493  -91.2713   32.1141 H       265        0    0.0000
   1595 H          92.8450  -91.0079   29.6857 H       265        0    0.0000
   1596 H          91.3595  -90.5241   30.4965 H       265        0    0.0000
   1597 C          93.0066  -89.1147   30.7624 C.3     266        0    0.0000
   1598 C          92.0007  -88.1753   31.4369 C.3     266        0    0.0000
   1599 H          93.9364  -89.1499   31.3434 H       266        0    0.0000
   1600 H          93.2704  -88.7324   29.7685 H       266        0    0.0000
   1601 H          91.0919  -88.0972   30.8274 H       266        0    0.0000
   1602 H          91.6950  -88.5857   32.4072 H       266        0    0.0000
   1603 C          92.5861  -86.7380   31.6579 C.3     267        0    0.0000
   1604 C          92.0789  -86.0973   32.9546 C.3     267        0    0.0000
   1605 H          93.6812  -86.8006   31.6726 H       267        0    0.0000
   1606 H          92.3178  -86.1110   30.7986 H       267        0    0.0000
   1607 H          91.0070  -85.8786   32.8719 H       267        0    0.0000
   1608 H          92.1937  -86.7984   33.7905 H       267        0    0.0000
   1609 C          92.8401  -84.7710   33.2993 C.3     268        0    0.0000
   1610 C          91.9648  -83.5294   33.0964 C.3     268        0    0.0000
   1611 H          93.1858  -84.8217   34.3392 H       268        0    0.0000
   1612 H          93.7376  -84.7051   32.6718 H       268        0    0.0000
   1613 H          91.3990  -83.6168   32.1606 H       268        0    0.0000
   1614 H          91.2269  -83.4532   33.9047 H       268        0    0.0000
   1615 C          92.8078  -82.2083   33.0556 C.3     269        0    0.0000
   1616 C          91.9256  -80.9553   33.0820 C.3     269        0    0.0000
   1617 H          93.4963  -82.2017   33.9097 H       269        0    0.0000
   1618 H          93.4282  -82.2126   32.1508 H       269        0    0.0000
   1619 H          91.3227  -80.9004   32.1672 H       269        0    0.0000
   1620 H          91.2209  -81.0090   33.9211 H       269        0    0.0000
   1621 C          92.7670  -79.6390   33.2124 C.3     270        0    0.0000
   1622 C          91.8829  -78.3890   33.2825 C.3     270        0    0.0000
   1623 H          93.3937  -79.7074   34.1103 H       270        0    0.0000
   1624 H          93.4497  -79.5695   32.3564 H       270        0    0.0000
   1625 H          91.1628  -78.3907   32.4548 H       270        0    0.0000
   1626 H          91.2969  -78.3943   34.2099 H       270        0    0.0000
   1627 C          92.7201  -77.0651   33.2212 C.3     271        0    0.0000
   1628 C          91.8331  -75.8154   33.2458 C.3     271        0    0.0000
   1629 H          93.4174  -77.0481   34.0679 H       271        0    0.0000
   1630 H          93.3310  -77.0749   32.3100 H       271        0    0.0000
   1631 H          91.4275  -75.6222   32.2450 H       271        0    0.0000
   1632 H          90.9737  -75.9770   33.9082 H       271        0    0.0000
   1633 C          92.6118  -74.5437   33.7295 C.3     272        0    0.0000
   1634 C          91.7177  -73.2999   33.7811 C.3     272        0    0.0000
   1635 H          93.0349  -74.7442   34.7216 H       272        0    0.0000
   1636 H          93.4592  -74.3700   33.0547 H       272        0    0.0000
   1637 H          90.6836  -73.5891   34.0059 H       272        0    0.0000
   1638 H          92.0426  -72.6364   34.5922 H       272        0    0.0000
   1639 C          91.7367  -72.4981   32.4342 C.3     273        0    0.0000
   1640 C          90.7656  -71.3125   32.4501 C.3     273        0    0.0000
   1641 H          92.7584  -72.1450   32.2473 H       273        0    0.0000
   1642 H          91.4841  -73.1803   31.6130 H       273        0    0.0000
   1643 H          90.7330  -70.8397   31.4607 H       273        0    0.0000
   1644 H          89.7484  -71.6624   32.6657 H       273        0    0.0000
   1645 C          91.1644  -70.2321   33.5137 C.3     274        0    0.0000
   1646 C          90.0619  -69.1882   33.7228 C.3     274        0    0.0000
   1647 H          91.3904  -70.7358   34.4617 H       274        0    0.0000
   1648 H          92.0904  -69.7414   33.1891 H       274        0    0.0000
   1649 H          89.1270  -69.5310   33.2623 H       274        0    0.0000
   1650 H          89.8587  -69.0651   34.7939 H       274        0    0.0000
   1651 C          90.4418  -67.7933   33.1170 C.3     275        0    0.0000
   1652 C          89.4065  -66.7135   33.4509 C.3     275        0    0.0000
   1653 H          91.4279  -67.4993   33.4974 H       275        0    0.0000
   1654 H          90.5414  -67.8954   32.0293 H       275        0    0.0000
   1655 H          88.4013  -67.1521   33.4789 H       275        0    0.0000
   1656 H          89.5994  -66.3036   34.4500 H       275        0    0.0000
   1657 C          89.4167  -65.5393   32.4123 C.3     276        0    0.0000
   1658 C          89.2702  -64.1692   33.0834 C.3     276        0    0.0000
   1659 H          90.3526  -65.5804   31.8413 H       276        0    0.0000
   1660 H          88.6024  -65.6954   31.6941 H       276        0    0.0000
   1661 H          88.2835  -64.0851   33.5554 H       276        0    0.0000
   1662 H          90.0126  -64.0609   33.8838 H       276        0    0.0000
   1663 C          89.4466  -62.9883   32.0676 C.3     277        0    0.0000
   1664 C          88.9593  -61.6524   32.6395 C.3     277        0    0.0000
   1665 H          90.5057  -62.9151   31.7909 H       277        0    0.0000
   1666 H          88.8967  -63.2270   31.1488 H       277        0    0.0000
   1667 H          88.4882  -61.0545   31.8496 H       277        0    0.0000
   1668 H          88.1909  -61.8278   33.4025 H       277        0    0.0000
   1669 C          90.1239  -60.8191   33.2775 C.3     278        0    0.0000
   1670 C          89.6242  -59.5213   33.9216 C.3     278        0    0.0000
   1671 H          90.6332  -61.4387   34.0259 H       278        0    0.0000
   1672 H          90.8637  -60.5925   32.4998 H       278        0    0.0000
   1673 H          88.5859  -59.6420   34.2546 H       278        0    0.0000
   1674 H          90.2172  -59.2925   34.8158 H       278        0    0.0000
   1675 C          89.7012  -58.3023   32.9389 C.3     279        0    0.0000
   1676 C          88.7917  -57.1477   33.3732 C.3     279        0    0.0000
   1677 H          90.7419  -57.9601   32.8808 H       279        0    0.0000
   1678 H          89.4244  -58.6412   31.9328 H       279        0    0.0000
   1679 H          87.8349  -57.5399   33.7396 H       279        0    0.0000
   1680 H          89.2490  -56.6022   34.2081 H       279        0    0.0000
   1681 C          88.5110  -56.1407   32.2051 C.3     280        0    0.0000
   1682 C          87.9596  -54.8032   32.7111 C.3     280        0    0.0000
   1683 H          89.4417  -55.9772   31.6478 H       280        0    0.0000
   1684 H          87.8014  -56.5996   31.5055 H       280        0    0.0000
   1685 H          87.2027  -54.4208   32.0150 H       280        0    0.0000
   1686 H          87.4575  -54.9442   33.6762 H       280        0    0.0000
   1687 C          89.0831  -53.7229   32.8791 C.3     281        0    0.0000
   1688 C          88.5137  -52.3401   33.2150 C.3     281        0    0.0000
   1689 H          89.7712  -54.0483   33.6691 H       281        0    0.0000
   1690 H          89.6680  -53.6739   31.9523 H       281        0    0.0000
   1691 H          87.4974  -52.2441   32.8132 H       281        0    0.0000
   1692 H          88.4352  -52.2196   34.3026 H       281        0    0.0000
   1693 C          89.3960  -51.1787   32.6403 C.3     282        0    0.0000
   1694 C          89.0575  -49.8244   33.2731 C.3     282        0    0.0000
   1695 H          90.4526  -51.4198   32.8106 H       282        0    0.0000
   1696 H          89.2548  -51.1319   31.5534 H       282        0    0.0000
   1697 H          88.5124  -49.9743   34.2133 H       282        0    0.0000
   1698 H          89.9795  -49.2863   33.5257 H       282        0    0.0000
   1699 C          88.1915  -48.9255   32.3247 C.3     283        0    0.0000
   1700 C          87.5188  -47.7700   33.0741 C.3     283        0    0.0000
   1701 H          88.8333  -48.5330   31.5262 H       283        0    0.0000
   1702 H          87.4325  -49.5517   31.8397 H       283        0    0.0000
   1703 H          86.4836  -47.6513   32.7310 H       283        0    0.0000
   1704 H          87.4715  -47.9944   34.1469 H       283        0    0.0000
   1705 C          88.2760  -46.4119   32.8748 C.3     284        0    0.0000
   1706 C          87.5547  -45.2402   33.5501 C.3     284        0    0.0000
   1707 H          89.2916  -46.5109   33.2777 H       284        0    0.0000
   1708 H          88.3809  -46.2199   31.7998 H       284        0    0.0000
   1709 H          86.5222  -45.1736   33.1854 H       284        0    0.0000
   1710 H          87.4963  -45.4081   34.6326 H       284        0    0.0000
   1711 C          88.2721  -43.8711   33.2890 C.3     285        0    0.0000
   1712 C          87.3395  -42.6751   33.5106 C.3     285        0    0.0000
   1713 H          89.1434  -43.7964   33.9515 H       285        0    0.0000
   1714 H          88.6561  -43.8633   32.2614 H       285        0    0.0000
   1715 H          86.3294  -42.9152   33.1562 H       285        0    0.0000
   1716 H          87.2541  -42.4583   34.5826 H       285        0    0.0000
   1717 C          87.8408  -41.3861   32.7727 C.3     286        0    0.0000
   1718 C          87.3426  -40.1016   33.4441 C.3     286        0    0.0000
   1719 H          88.9376  -41.3967   32.7481 H       286        0    0.0000
   1720 H          87.5020  -41.4212   31.7299 H       286        0    0.0000
   1721 H          86.2509  -40.0328   33.3611 H       286        0    0.0000
   1722 H          87.5764  -40.1223   34.5158 H       286        0    0.0000
   1723 C          87.9795  -38.8157   32.8129 C.3     287        0    0.0000
   1724 C          87.1496  -37.5583   33.0945 C.3     287        0    0.0000
   1725 H          88.9949  -38.6929   33.2094 H       287        0    0.0000
   1726 H          88.0798  -38.9656   31.7307 H       287        0    0.0000
   1727 H          86.1001  -37.7324   32.8266 H       287        0    0.0000
   1728 H          87.1670  -37.3286   34.1671 H       287        0    0.0000
   1729 C          87.6732  -36.3111   32.3021 C.3     288        0    0.0000
   1730 C          87.4080  -34.9974   33.0456 C.3     288        0    0.0000
   1731 H          88.7488  -36.4318   32.1234 H       288        0    0.0000
   1732 H          87.1906  -36.2900   31.3171 H       288        0    0.0000
   1733 H          86.3651  -34.6883   32.9029 H       288        0    0.0000
   1734 H          87.5494  -35.1403   34.1241 H       288        0    0.0000
   1735 C          88.3487  -33.8405   32.5616 C.3     289        0    0.0000
   1736 C          87.6620  -32.4714   32.6181 C.3     289        0    0.0000
   1737 H          89.2514  -33.8346   33.1849 H       289        0    0.0000
   1738 H          88.6750  -34.0556   31.5365 H       289        0    0.0000
   1739 H          87.8998  -31.8938   31.7162 H       289        0    0.0000
   1740 H          86.5723  -32.5975   32.6333 H       289        0    0.0000
   1741 C          88.0924  -31.6425   33.8771 C.3     290        0    0.0000
   1742 C          87.2437  -30.3792   34.0587 C.3     290        0    0.0000
   1743 H          88.0114  -32.2810   34.7655 H       290        0    0.0000
   1744 H          89.1513  -31.3733   33.7781 H       290        0    0.0000
   1745 H          86.2977  -30.4799   33.5126 H       290        0    0.0000
   1746 H          86.9844  -30.2492   35.1167 H       290        0    0.0000
   1747 C          87.9819  -29.0904   33.5573 C.3     291        0    0.0000
   1748 C          87.0068  -28.0243   33.0459 C.3     291        0    0.0000
   1749 H          88.5846  -28.6855   34.3797 H       291        0    0.0000
   1750 H          88.6831  -29.3715   32.7617 H       291        0    0.0000
   1751 H          86.1882  -28.4987   32.4906 H       291        0    0.0000
   1752 H          86.5492  -27.4964   33.8917 H       291        0    0.0000
   1753 C          87.7077  -26.9756   32.1151 C.3     292        0    0.0000
   1754 C          87.3958  -25.5328   32.5276 C.3     292        0    0.0000
   1755 H          88.7907  -27.1483   32.1405 H       292        0    0.0000
   1756 H          87.3851  -27.1492   31.0810 H       292        0    0.0000
   1757 H          87.2532  -25.4746   33.6138 H       292        0    0.0000
   1758 H          88.2442  -24.8807   32.2859 H       292        0    0.0000
   1759 C          86.1129  -24.9764   31.8191 C.3     293        0    0.0000
   1760 C          85.7786  -23.5475   32.2611 C.3     293        0    0.0000
   1761 H          86.2668  -25.0080   30.7333 H       293        0    0.0000
   1762 H          85.2705  -25.6444   32.0374 H       293        0    0.0000
   1763 H          84.7228  -23.3284   32.0591 H       293        0    0.0000
   1764 H          85.9197  -23.4461   33.3444 H       293        0    0.0000
   1765 C          86.6647  -22.4780   31.5340 C.3     294        0    0.0000
   1766 C          86.4335  -21.0644   32.0791 C.3     294        0    0.0000
   1767 H          87.7197  -22.7569   31.6470 H       294        0    0.0000
   1768 H          86.4443  -22.5076   30.4597 H       294        0    0.0000
   1769 H          85.3719  -20.9215   32.3159 H       294        0    0.0000
   1770 H          86.9866  -20.9276   33.0166 H       294        0    0.0000
   1771 C          86.8783  -19.9560   31.0638 C.3     295        0    0.0000
   1772 C          86.7495  -18.5457   31.6500 C.3     295        0    0.0000
   1773 H          87.9168  -20.1459   30.7654 H       295        0    0.0000
   1774 H          86.2688  -20.0430   30.1558 H       295        0    0.0000
   1775 H          85.7913  -18.4423   32.1742 H       295        0    0.0000
   1776 H          87.5363  -18.3748   32.3952 H       295        0    0.0000
   1777 C          86.8459  -17.4337   30.5493 C.3     296        0    0.0000
   1778 C          86.5196  -16.0412   31.1003 C.3     296        0    0.0000
   1779 H          87.8576  -17.4428   30.1251 H       296        0    0.0000
   1780 H          86.1592  -17.6851   29.7316 H       296        0    0.0000
   1781 H          85.7973  -15.5375   30.4460 H       296        0    0.0000
   1782 H          86.0449  -16.1283   32.0855 H       296        0    0.0000
   1783 C          87.7958  -15.1404   31.2322 C.3     297        0    0.0000
   1784 C          87.4457  -13.6743   31.5101 C.3     297        0    0.0000
   1785 H          88.4260  -15.5359   32.0383 H       297        0    0.0000
   1786 H          88.3809  -15.2187   30.3075 H       297        0    0.0000
   1787 H          86.5837  -13.3718   30.9026 H       297        0    0.0000
   1788 H          87.1506  -13.5504   32.5594 H       297        0    0.0000
   1789 C          88.6428  -12.7095   31.2045 C.3     298        0    0.0000
   1790 C          88.3091  -11.2491   31.5284 C.3     298        0    0.0000
   1791 H          89.5154  -13.0337   31.7851 H       298        0    0.0000
   1792 H          88.9146  -12.8074   30.1462 H       298        0    0.0000
   1793 H          87.6011  -11.2017   32.3651 H       298        0    0.0000
   1794 H          89.2139  -10.7191   31.8510 H       298        0    0.0000
   1795 C          87.6919  -10.4943   30.3009 C.3     299        0    0.0000
   1796 C          87.0109   -9.1830   30.7078 C.3     299        0    0.0000
   1797 H          88.4873  -10.2948   29.5721 H       299        0    0.0000
   1798 H          86.9697  -11.1554   29.8060 H       299        0    0.0000
   1799 H          86.0476   -9.0836   30.1923 H       299        0    0.0000
   1800 H          86.7936   -9.1898   31.7831 H       299        0    0.0000
   1801 C          87.8919   -7.9289   30.3784 C.3     300        0    0.0000
   1802 C          87.1389   -6.6137   30.6072 C.3     300        0    0.0000
   1803 H          88.7953   -7.9582   31.0001 H       300        0    0.0000
   1804 H          88.2251   -7.9950   29.3352 H       300        0    0.0000
   1805 H          86.0729   -6.7471   30.3852 H       300        0    0.0000
   1806 H          87.2067   -6.3201   31.6620 H       300        0    0.0000
   1807 C          87.6975   -5.4474   29.7211 C.3     301        0    0.0000
   1808 C          87.6932   -4.1040   30.4590 C.3     301        0    0.0000
   1809 H          88.7175   -5.7001   29.4059 H       301        0    0.0000
   1810 H          87.0939   -5.3768   28.8078 H       301        0    0.0000
   1811 H          86.6790   -3.6860   30.4733 H       301        0    0.0000
   1812 H          87.9891   -4.2487   31.5055 H       301        0    0.0000
   1813 C          88.6604   -3.0611   29.8000 C.3     302        0    0.0000
   1814 C          88.0840   -1.6411   29.8197 C.3     302        0    0.0000
   1815 H          89.6204   -3.0848   30.3303 H       302        0    0.0000
   1816 H          88.8633   -3.3704   28.7672 H       302        0    0.0000
   1817 H          87.1796   -1.5935   29.2006 H       302        0    0.0000
   1818 H          87.7822   -1.3718   30.8395 H       302        0    0.0000
   1819 C          89.1097   -0.5763   29.2985 C.3     303        0    0.0000
   1820 C          88.7663    0.8408   29.7706 C.3     303        0    0.0000
   1821 H          90.1136   -0.8544   29.6425 H       303        0    0.0000
   1822 H          89.1309   -0.6128   28.2023 H       303        0    0.0000
   1823 H          87.7165    1.0677   29.5470 H       303        0    0.0000
   1824 H          88.8790    0.9122   30.8596 H       303        0    0.0000
   1825 C          89.6728    1.9277   29.0965 C.3     304        0    0.0000
   1826 C          88.9296    3.2503   28.8788 C.3     304        0    0.0000
   1827 H          90.5559    2.0917   29.7263 H       304        0    0.0000
   1828 H          90.0375    1.5388   28.1377 H       304        0    0.0000
   1829 H          88.0949    3.1025   28.1824 H       304        0    0.0000
   1830 H          88.4937    3.5969   29.8240 H       304        0    0.0000
   1831 C          89.8669    4.3723   28.3131 C.3     305        0    0.0000
   1832 C          89.3399    5.7785   28.6193 C.3     305        0    0.0000
   1833 H          90.8691    4.2448   28.7409 H       305        0    0.0000
   1834 H          89.9674    4.2360   27.2292 H       305        0    0.0000
   1835 H          88.4501    5.9871   28.0125 H       305        0    0.0000
   1836 H          89.0275    5.8428   29.6690 H       305        0    0.0000
   1837 C          90.4120    6.8882   28.3423 C.3     306        0    0.0000
   1838 C          89.8359    8.0678   27.5514 C.3     306        0    0.0000
   1839 H          90.8141    7.2386   29.3010 H       306        0    0.0000
   1840 H          91.2502    6.4409   27.7938 H       306        0    0.0000
   1841 H          89.2917    7.7013   26.6722 H       306        0    0.0000
   1842 H          89.1099    8.6142   28.1661 H       306        0    0.0000
   1843 C          90.9486    9.0652   27.0773 C.3     307        0    0.0000
   1844 C          90.3664   10.3981   26.5943 C.3     307        0    0.0000
   1845 H          91.6456    9.2377   27.9068 H       307        0    0.0000
   1846 H          91.5267    8.5937   26.2730 H       307        0    0.0000
   1847 H          89.6541   10.2238   25.7783 H       307        0    0.0000
   1848 H          89.8052   10.8793   27.4049 H       307        0    0.0000
   1849 C          91.4768   11.3848   26.0935 C.3     308        0    0.0000
   1850 C          90.8965   12.7254   25.6296 C.3     308        0    0.0000
   1851 H          92.1973   11.5474   26.9047 H       308        0    0.0000
   1852 H          92.0283   10.9095   25.2729 H       308        0    0.0000
   1853 H          90.1607   12.5611   24.8326 H       308        0    0.0000
   1854 H          90.3625   13.2103   26.4562 H       308        0    0.0000
   1855 C          92.0038   13.7013   25.1017 C.3     309        0    0.0000
   1856 C          91.4360   14.7699   24.1611 C.3     309        0    0.0000
   1857 H          92.4937   14.1777   25.9600 H       309        0    0.0000
   1858 H          92.7740   13.1158   24.5845 H       309        0    0.0000
   1859 H          90.9101   14.2934   23.3244 H       309        0    0.0000
   1860 H          90.6956   15.3822   24.6907 H       309        0    0.0000
   1861 C          92.5516   15.7098   23.5872 C.3     310        0    0.0000
   1862 C          92.1684   17.1908   23.6811 C.3     310        0    0.0000
   1863 H          93.4843   15.5271   24.1353 H       310        0    0.0000
   1864 H          92.7416   15.4359   22.5421 H       310        0    0.0000
   1865 H          91.2157   17.3661   23.1662 H       310        0    0.0000
   1866 H          92.0164   17.4743   24.7299 H       310        0    0.0000
   1867 C          93.2597   18.1276   23.0574 C.3     311        0    0.0000
   1868 C          92.8314   18.6944   21.6994 C.3     311        0    0.0000
   1869 H          93.4659   18.9458   23.7585 H       311        0    0.0000
   1870 H          94.1931   17.5611   22.9511 H       311        0    0.0000
   1871 H          92.5471   17.8781   21.0238 H       311        0    0.0000
   1872 H          91.9437   19.3278   21.8192 H       311        0    0.0000
   1873 C          93.9665   19.5379   21.0230 C.3     312        0    0.0000
   1874 C          94.7073   18.7498   19.9370 C.3     312        0    0.0000
   1875 H          93.5245   20.4456   20.5937 H       312        0    0.0000
   1876 H          94.6717   19.8664   21.7965 H       312        0    0.0000
   1877 H          94.5097   17.6767   20.0502 H       312        0    0.0000
   1878 H          94.3357   19.0358   18.9452 H       312        0    0.0000
   1879 C          96.2563   18.9861   19.9837 C.3     313        0    0.0000
   1880 C          96.6948   20.1439   19.0803 C.3     313        0    0.0000
   1881 H          96.5525   19.1854   21.0211 H       313        0    0.0000
   1882 H          96.7642   18.0613   19.6832 H       313        0    0.0000
   1883 H          96.4502   19.9187   18.0348 H       313        0    0.0000
   1884 H          96.1441   21.0556   19.3432 H       313        0    0.0000
   1885 C          98.2317   20.4330   19.1888 C.3     314        0    0.0000
   1886 C          98.6616   21.6223   18.3229 C.3     314        0    0.0000
   1887 H          98.4825   20.6228   20.2398 H       314        0    0.0000
   1888 H          98.7827   19.5323   18.8911 H       314        0    0.0000
   1889 H          98.0826   21.6380   17.3912 H       314        0    0.0000
   1890 H          98.4465   22.5637   18.8433 H       314        0    0.0000
   1891 C         100.1880   21.5781   17.9685 C.3     315        0    0.0000
   1892 C         100.6084   22.7425   17.0649 C.3     315        0    0.0000
   1893 H         100.7678   21.5962   18.8996 H       315        0    0.0000
   1894 H         100.4096   20.6223   17.4779 H       315        0    0.0000
   1895 H          99.9857   22.7618   16.1619 H       315        0    0.0000
   1896 H         100.4449   23.6969   17.5807 H       315        0    0.0000
   1897 C         102.1141   22.6500   16.6386 C.3     316        0    0.0000
   1898 C         102.5436   23.8325   15.7633 C.3     316        0    0.0000
   1899 H         102.7353   22.6054   17.5418 H       316        0    0.0000
   1900 H         102.2720   21.7070   16.1008 H       316        0    0.0000
   1901 H         101.7506   24.0770   15.0457 H       316        0    0.0000
   1902 H         102.6933   24.7249   16.3836 H       316        0    0.0000
   1903 C         103.8658   23.5381   14.9741 C.3     317        0    0.0000
   1904 C         104.2508   24.6878   14.0365 C.3     317        0    0.0000
   1905 H         104.6731   23.3529   15.6934 H       317        0    0.0000
   1906 H         103.7364   22.6120   14.4004 H       317        0    0.0000
   1907 H         103.7383   24.5751   13.0731 H       317        0    0.0000
   1908 H         103.9204   25.6447   14.4592 H       317        0    0.0000
   1909 C         105.7962   24.7546   13.7819 C.3     318        0    0.0000
   1910 C         106.1929   25.9664   12.9315 C.3     318        0    0.0000
   1911 H         106.3128   24.7885   14.7491 H       318        0    0.0000
   1912 H         106.1135   23.8280   13.2876 H       318        0    0.0000
   1913 H         105.3228   26.3367   12.3754 H       318        0    0.0000
   1914 H         106.5258   26.7873   13.5787 H       318        0    0.0000
   1915 C         107.3369   25.6293   11.9141 C.3     319        0    0.0000
   1916 C         107.4669   26.6889   10.8143 C.3     319        0    0.0000
   1917 H         108.2826   25.5385   12.4626 H       319        0    0.0000
   1918 H         107.1356   24.6473   11.4684 H       319        0    0.0000
   1919 H         106.6835   26.5460   10.0598 H       319        0    0.0000
   1920 H         107.3182   27.6902   11.2372 H       319        0    0.0000
   1921 C         108.8648   26.6419   10.1064 C.3     320        0    0.0000
   1922 C         109.2873   28.0115    9.5634 C.3     320        0    0.0000
   1923 H         109.6112   26.2742   10.8215 H       320        0    0.0000
   1924 H         108.8234   25.9101    9.2901 H       320        0    0.0000
   1925 H         108.6463   28.2956    8.7197 H       320        0    0.0000
   1926 H         109.1520   28.7799   10.3346 H       320        0    0.0000
   1927 C         110.7818   28.0278    9.0906 C.3     321        0    0.0000
   1928 C         110.9269   28.5009    7.6400 C.3     321        0    0.0000
   1929 H         111.3569   28.6810    9.7586 H       321        0    0.0000
   1930 H         111.1986   27.0190    9.2008 H       321        0    0.0000
   1931 H         110.0829   28.1388    7.0400 H       321        0    0.0000
   1932 H         110.8969   29.5967    7.5969 H       321        0    0.0000
   1933 C         112.2621   28.0058    6.9844 C.3     322        0    0.0000
   1934 C         112.9121   29.0813    6.1070 C.3     322        0    0.0000
   1935 H         112.9539   27.6998    7.7789 H       322        0    0.0000
   1936 H         112.0518   27.1098    6.3874 H       322        0    0.0000
   1937 H         112.2118   29.4039    5.3266 H       322        0    0.0000
   1938 H         113.1434   29.9688    6.7091 H       322        0    0.0000
   1939 C         114.2301   28.5755    5.4256 C.3     323        0    0.0000
   1940 C         114.7070   29.5162    4.3135 C.3     323        0    0.0000
   1941 H         115.0083   28.4745    6.1923 H       323        0    0.0000
   1942 H         114.0555   27.5714    5.0198 H       323        0    0.0000
   1943 H         113.8922   29.7019    3.6028 H       323        0    0.0000
   1944 H         114.9836   30.4896    4.7371 H       323        0    0.0000
   1945 C         115.9367   28.9373    3.5324 C.3     324        0    0.0000
   1946 C         116.6591   30.0095    2.7093 C.3     324        0    0.0000
   1947 H         116.6305   28.4838    4.2511 H       324        0    0.0000
   1948 H         115.5902   28.1292    2.8762 H       324        0    0.0000
   1949 H         115.9724   30.4440    1.9722 H       324        0    0.0000
   1950 H         116.9819   30.8304    3.3615 H       324        0    0.0000
   1951 C         117.9111   29.4386    1.9583 C.3     325        0    0.0000
   1952 C         118.5576   30.4768    1.0344 C.3     325        0    0.0000
   1953 H         118.6399   29.0898    2.7004 H       325        0    0.0000
   1954 H         117.6053   28.5585    1.3792 H       325        0    0.0000
   1955 H         117.8412   30.7953    0.2670 H       325        0    0.0000
   1956 H         118.8263   31.3736    1.6062 H       325        0    0.0000
   1957 C         119.8431   29.9243    0.3275 C.3     326        0    0.0000
   1958 C         120.1954   30.7146   -0.9375 C.3     326        0    0.0000
   1959 H         120.6790   29.9581    1.0372 H       326        0    0.0000
   1960 H         119.6835   28.8678    0.0788 H       326        0    0.0000
   1961 H         119.3198   30.7818   -1.5951 H       326        0    0.0000
   1962 H         120.4712   31.7432   -0.6739 H       326        0    0.0000
   1963 C         121.3773   30.0632   -1.7351 C.3     327        0    0.0000
   1964 C         122.0301   31.0467   -2.7127 C.3     327        0    0.0000
   1965 H         122.1230   29.6914   -1.0214 H       327        0    0.0000
   1966 H         120.9979   29.1888   -2.2783 H       327        0    0.0000
   1967 H         121.2653   31.5050   -3.3520 H       327        0    0.0000
   1968 H         122.5098   31.8639   -2.1600 H       327        0    0.0000
   1969 C         123.1022   30.3553   -3.6238 C.3     328        0    0.0000
   1970 C         124.4541   31.0759   -3.5791 C.3     328        0    0.0000
   1971 H         123.2206   29.3132   -3.3021 H       328        0    0.0000
   1972 H         122.7253   30.3262   -4.6537 H       328        0    0.0000
   1973 H         124.4526   31.9222   -4.2772 H       328        0    0.0000
   1974 H         124.6253   31.4929   -2.5789 H       328        0    0.0000
   1975 C         125.6466   30.1248   -3.9409 C.3     329        0    0.0000
   1976 C         125.9388   30.1059   -5.4453 C.3     329        0    0.0000
   1977 H         126.5374   30.4488   -3.3887 H       329        0    0.0000
   1978 H         125.4100   29.1123   -3.5909 H       329        0    0.0000
   1979 H         124.9990   30.0790   -6.0107 H       329        0    0.0000
   1980 H         126.4571   31.0271   -5.7394 H       329        0    0.0000
   1981 C         126.8162   28.8765   -5.8648 C.3     330        0    0.0000
   1982 C         126.7864   28.6306   -7.3773 C.3     330        0    0.0000
   1983 H         127.8474   29.0480   -5.5318 H       330        0    0.0000
   1984 H         126.4569   27.9874   -5.3319 H       330        0    0.0000
   1985 H         125.7568   28.4458   -7.7081 H       330        0    0.0000
   1986 H         127.1330   29.5244   -7.9106 H       330        0    0.0000
   1987 C         127.6789   27.4127   -7.7989 C.3     331        0    0.0000
   1988 C         128.1313   27.5027   -9.2605 C.3     331        0    0.0000
   1989 H         128.5524   27.3685   -7.1367 H       331        0    0.0000
   1990 H         127.1133   26.4869   -7.6366 H       331        0    0.0000
   1991 H         127.2583   27.5757   -9.9207 H       331        0    0.0000
   1992 H         128.7212   28.4145   -9.4162 H       331        0    0.0000
   1993 C         128.9904   26.2650   -9.6937 C.3     332        0    0.0000
   1994 C         129.5658   26.4229  -11.1055 C.3     332        0    0.0000
   1995 H         129.8029   26.1276   -8.9695 H       332        0    0.0000
   1996 H         128.3655   25.3649   -9.6407 H       332        0    0.0000
   1997 H         128.8037   26.8351  -11.7784 H       332        0    0.0000
   1998 H         130.3972   27.1386  -11.0950 H       332        0    0.0000
   1999 C         130.0772   25.0629  -11.6941 C.3     333        0    0.0000
   2000 C         131.1692   25.2615  -12.7510 C.3     333        0    0.0000
   2001 H         130.4571   24.4427  -10.8727 H       333        0    0.0000
   2002 H         129.2266   24.5235  -12.1287 H       333        0    0.0000
   2003 H         130.8199   25.9535  -13.5274 H       333        0    0.0000
   2004 H         132.0550   25.7207  -12.2951 H       333        0    0.0000
   2005 C         131.5917   23.9128  -13.4294 C.3     334        0    0.0000
   2006 C         132.9427   24.0209  -14.1450 C.3     334        0    0.0000
   2007 H         131.6338   23.1294  -12.6626 H       334        0    0.0000
   2008 H         130.8117   23.6154  -14.1412 H       334        0    0.0000
   2009 H         132.8912   24.7824  -14.9330 H       334        0    0.0000
   2010 H         133.7167   24.3489  -13.4400 H       334        0    0.0000
   2011 C         133.3863   22.6605  -14.7853 C.3     335        0    0.0000
   2012 C         134.1225   22.8571  -16.1151 C.3     335        0    0.0000
   2013 H         134.0300   22.1282  -14.0741 H       335        0    0.0000
   2014 H         132.4982   22.0344  -14.9360 H       335        0    0.0000
   2015 H         133.5623   23.5487  -16.7565 H       335        0    0.0000
   2016 H         135.1031   23.3161  -15.9379 H       335        0    0.0000
   2017 C         134.3281   21.5075  -16.8856 C.3     336        0    0.0000
   2018 C         135.7003   21.4290  -17.5639 C.3     336        0    0.0000
   2019 H         134.2092   20.6759  -16.1801 H       336        0    0.0000
   2020 H         133.5323   21.4024  -17.6334 H       336        0    0.0000
   2021 H         135.8283   22.2733  -18.2526 H       336        0    0.0000
   2022 H         136.4962   21.5113  -16.8133 H       336        0    0.0000
   2023 C         135.8936   20.0930  -18.3608 C.3     337        0    0.0000
   2024 C         137.0452   20.1792  -19.3685 C.3     337        0    0.0000
   2025 H         136.0774   19.2795  -17.6481 H       337        0    0.0000
   2026 H         134.9573   19.8520  -18.8794 H       337        0    0.0000
   2027 H         136.9369   21.0784  -19.9876 H       337        0    0.0000
   2028 H         138.0016   20.2743  -18.8394 H       337        0    0.0000
   2029 C         137.1092   18.9247  -20.3063 C.3     338        0    0.0000
   2030 C         138.5274   18.6565  -20.8219 C.3     338        0    0.0000
   2031 H         136.7380   18.0518  -19.7551 H       338        0    0.0000
   2032 H         136.4251   19.0787  -21.1500 H       338        0    0.0000
   2033 H         138.9325   19.5595  -21.2952 H       338        0    0.0000
   2034 H         139.1927   18.4146  -19.9838 H       338        0    0.0000
   2035 C         138.5706   17.4803  -21.8573 C.3     339        0    0.0000
   2036 C         139.9805   17.2450  -22.4105 C.3     339        0    0.0000
   2037 H         138.1997   16.5687  -21.3726 H       339        0    0.0000
   2038 H         137.8775   17.7055  -22.6773 H       339        0    0.0000
   2039 H         140.3957   18.1851  -22.7944 H       339        0    0.0000
   2040 H         140.6487   16.9102  -21.6073 H       339        0    0.0000
   2041 C         139.9976   16.1787  -23.5594 C.3     340        0    0.0000
   2042 C         141.4153   15.6921  -23.8792 C.3     340        0    0.0000
   2043 H         139.3665   15.3311  -23.2646 H       340        0    0.0000
   2044 H         139.5391   16.6163  -24.4548 H       340        0    0.0000
   2045 H         142.0658   16.5475  -24.1000 H       340        0    0.0000
   2046 H         141.8454   15.1864  -23.0059 H       340        0    0.0000
   2047 C         141.4445   14.7072  -25.0985 C.3     341        0    0.0000
   2048 C         142.8492   14.1557  -25.3662 C.3     341        0    0.0000
   2049 H         140.7474   13.8828  -24.9039 H       341        0    0.0000
   2050 H         141.0711   15.2325  -25.9864 H       341        0    0.0000
   2051 H         143.5455   14.9800  -25.5643 H       341        0    0.0000
   2052 H         143.2240   13.6334  -24.4772 H       341        0    0.0000
   2053 C         142.8775   13.1671  -26.5825 C.3     342        0    0.0000
   2054 C         144.2608   12.5405  -26.7897 C.3     342        0    0.0000
   2055 H         142.1297   12.3816  -26.4172 H       342        0    0.0000
   2056 H         142.5708   13.7089  -27.4858 H       342        0    0.0000
   2057 H         144.9852   13.3138  -27.0740 H       342        0    0.0000
   2058 H         144.6199   12.1026  -25.8501 H       342        0    0.0000
   2059 C         144.2497   11.4279  -27.8940 C.3     343        0    0.0000
   2060 C         145.6317   10.7970  -28.0968 C.3     343        0    0.0000
   2061 H         143.5220   10.6569  -27.6118 H       343        0    0.0000
   2062 H         143.8949   11.8669  -28.8347 H       343        0    0.0000
   2063 H         146.2548   11.4490  -28.7214 H       343        0    0.0000
   2064 H         146.1458   10.6994  -27.1326 H       343        0    0.0000
   2065 C         145.5466    9.3837  -28.7695 C.3     344        0    0.0000
   2066 C         146.9296    8.7602  -28.9881 C.3     344        0    0.0000
   2067 H         144.9339    8.7280  -28.1384 H       344        0    0.0000
   2068 H         145.0213    9.4792  -29.7279 H       344        0    0.0000
   2069 H         146.8256    7.7105  -29.2893 H       344        0    0.0000
   2070 H         147.4482    9.2732  -29.8075 H       344        0    0.0000
   2071 C         147.8231    8.8308  -27.7019 C.3     345        0    0.0000
   2072 C         149.2653    8.3877  -27.9716 C.3     345        0    0.0000
   2073 H         147.8108    9.8587  -27.3188 H       345        0    0.0000
   2074 H         147.3747    8.1995  -26.9248 H       345        0    0.0000
   2075 H         149.8117    9.1828  -28.4939 H       345        0    0.0000
   2076 H         149.7895    8.2157  -27.0233 H       345        0    0.0000
   2077 C         149.3337    7.0787  -28.8314 C.3     346        0    0.0000
   2078 C         150.7760    6.6417  -29.1103 C.3     346        0    0.0000
   2079 H         148.7942    6.2814  -28.3053 H       346        0    0.0000
   2080 H         148.8026    7.2481  -29.7763 H       346        0    0.0000
   2081 H         151.2088    7.2592  -29.9071 H       346        0    0.0000
   2082 H         151.3957    6.7983  -28.2187 H       346        0    0.0000
   2083 C         150.8692    5.1347  -29.5321 C.3     347        0    0.0000
   2084 C         152.2045    4.8018  -30.2067 C.3     347        0    0.0000
   2085 H         150.7314    4.5091  -28.6414 H       347        0    0.0000
   2086 H         150.0377    4.9052  -30.2099 H       347        0    0.0000
   2087 H         152.4509    5.5683  -30.9519 H       347        0    0.0000
   2088 H         153.0132    4.8116  -29.4655 H       347        0    0.0000
   2089 C         152.1815    3.4015  -30.9110 C.3     348        0    0.0000
   2090 C         153.5906    2.8801  -31.2133 C.3     348        0    0.0000
   2091 H         151.6474    2.6910  -30.2679 H       348        0    0.0000
   2092 H         151.6030    3.4822  -31.8396 H       348        0    0.0000
   2093 H         153.5577    2.1694  -32.0484 H       348        0    0.0000
   2094 H         154.2382    3.7074  -31.5290 H       348        0    0.0000
   2095 C         154.2413    2.1738  -29.9742 C.3     349        0    0.0000
   2096 C         155.7518    1.9774  -30.1445 C.3     349        0    0.0000
   2097 H         154.0386    2.7737  -29.0784 H       349        0    0.0000
   2098 H         153.7507    1.2044  -29.8218 H       349        0    0.0000
   2099 H         155.9531    1.3524  -31.0233 H       349        0    0.0000
   2100 H         156.2385    2.9435  -30.3267 H       349        0    0.0000
   2101 C         156.4093    1.3094  -28.8880 C.3     350        0    0.0000
   2102 C         157.8313    0.8126  -29.1715 C.3     350        0    0.0000
   2103 H         156.4217    2.0366  -28.0667 H       350        0    0.0000
   2104 H         155.7776    0.4745  -28.5600 H       350        0    0.0000
   2105 H         158.4779    1.0097  -28.3075 H       350        0    0.0000
   2106 H         157.8273   -0.2742  -29.3206 H       350        0    0.0000
   2107 C         158.4573    1.4940  -30.4370 C.3     351        0    0.0000
   2108 C         159.8432    0.9324  -30.7733 C.3     351        0    0.0000
   2109 H         157.7780    1.3532  -31.2869 H       351        0    0.0000
   2110 H         158.5220    2.5749  -30.2610 H       351        0    0.0000
   2111 H         159.8710   -0.1458  -30.5726 H       351        0    0.0000
   2112 H         160.0510    1.0592  -31.8430 H       351        0    0.0000
   2113 C         160.9819    1.6289  -29.9512 C.3     352        0    0.0000
   2114 C         162.1273    0.6674  -29.6155 C.3     352        0    0.0000
   2115 H         161.3629    2.4814  -30.5270 H       352        0    0.0000
   2116 H         160.5522    2.0387  -29.0287 H       352        0    0.0000
   2117 H         162.1907   -0.1218  -30.3749 H       352        0    0.0000
   2118 H         163.0852    1.2018  -29.6359 H       352        0    0.0000
   2119 C         161.9503    0.0010  -28.2077 C.3     353        0    0.0000
   2120 C         163.0443   -1.0307  -27.9117 C.3     353        0    0.0000
   2121 H         161.9564    0.7862  -27.4415 H       353        0    0.0000
   2122 H         160.9627   -0.4747  -28.1633 H       353        0    0.0000
   2123 H         163.8294   -0.9762  -28.6760 H       353        0    0.0000
   2124 H         163.5238   -0.8054  -26.9510 H       353        0    0.0000
   2125 C         162.4842   -2.4941  -27.8660 C.3     354        0    0.0000
   2126 C         163.5498   -3.5110  -27.4422 C.3     354        0    0.0000
   2127 H         161.6358   -2.5265  -27.1712 H       354        0    0.0000
   2128 H         162.0902   -2.7530  -28.8566 H       354        0    0.0000
   2129 H         163.3051   -3.9229  -26.4552 H       354        0    0.0000
   2130 H         163.5629   -4.3559  -28.1418 H       354        0    0.0000
   2131 C         164.9837   -2.8800  -27.3850 C.3     355        0    0.0000
   2132 C         166.0218   -3.8483  -26.8073 C.3     355        0    0.0000
   2133 H         165.2763   -2.5748  -28.3973 H       355        0    0.0000
   2134 H         164.9440   -1.9660  -26.7796 H       355        0    0.0000
   2135 H         165.5219   -4.6323  -26.2251 H       355        0    0.0000
   2136 H         166.5585   -4.3532  -27.6200 H       355        0    0.0000
   2137 C         167.0638   -3.1230  -25.8877 C.3     356        0    0.0000
   2138 C         168.0768   -4.0974  -25.2768 C.3     356        0    0.0000
   2139 H         167.5853   -2.3594  -26.4781 H       356        0    0.0000
   2140 H         166.5250   -2.5928  -25.0926 H       356        0    0.0000
   2141 H         167.9626   -5.0908  -25.7281 H       356        0    0.0000
   2142 H         169.0987   -3.7660  -25.4989 H       356        0    0.0000
   2143 C         167.9141   -4.2267  -23.7230 C.3     357        0    0.0000
   2144 C         169.0355   -5.0568  -23.0886 C.3     357        0    0.0000
   2145 H         167.8961   -3.2213  -23.2844 H       357        0    0.0000
   2146 H         166.9400   -4.6825  -23.5062 H       357        0    0.0000
   2147 H         169.9037   -5.0903  -23.7584 H       357        0    0.0000
   2148 H         169.3734   -4.5838  -22.1582 H       357        0    0.0000
   2149 C         168.5831   -6.5244  -22.7739 C.3     358        0    0.0000
   2150 C         169.5827   -7.2602  -21.8747 C.3     358        0    0.0000
   2151 H         167.5967   -6.4953  -22.2947 H       358        0    0.0000
   2152 H         168.4581   -7.0663  -23.7196 H       358        0    0.0000
   2153 H         169.5826   -6.8173  -20.8710 H       358        0    0.0000
   2154 H         169.2816   -8.3085  -21.7566 H       358        0    0.0000
   2155 C         171.0416   -7.2148  -22.4467 C.3     359        0    0.0000
   2156 C         172.0785   -7.7122  -21.4336 C.3     359        0    0.0000
   2157 H         171.0833   -7.8245  -23.3578 H       359        0    0.0000
   2158 H         171.2721   -6.1849  -22.7461 H       359        0    0.0000
   2159 H         171.6952   -8.5939  -20.9052 H       359        0    0.0000
   2160 H         172.9910   -8.0287  -21.9539 H       359        0    0.0000
   2161 C         172.4530   -6.6144  -20.3791 C.3     360        0    0.0000
   2162 C         173.4632   -7.1230  -19.3449 C.3     360        0    0.0000
   2163 H         172.8605   -5.7426  -20.9058 H       360        0    0.0000
   2164 H         171.5370   -6.2793  -19.8770 H       360        0    0.0000
   2165 H         173.9920   -8.0012  -19.7357 H       360        0    0.0000
   2166 H         174.2243   -6.3563  -19.1538 H       360        0    0.0000
   2167 C         172.7808   -7.5071  -17.9868 C.3     361        0    0.0000
   2168 C         173.7000   -8.3453  -17.0915 C.3     361        0    0.0000
   2169 H         172.4858   -6.5874  -17.4668 H       361        0    0.0000
   2170 H         171.8569   -8.0593  -18.1991 H       361        0    0.0000
   2171 H         174.7503   -8.1360  -17.3298 H       361        0    0.0000
   2172 H         173.5546   -8.0692  -16.0398 H       361        0    0.0000
   2173 C         173.4428   -9.8835  -17.2504 C.3     362        0    0.0000
   2174 C         174.4051  -10.7239  -16.4037 C.3     362        0    0.0000
   2175 H         172.4053  -10.0997  -16.9668 H       362        0    0.0000
   2176 H         173.5421  -10.1511  -18.3097 H       362        0    0.0000
   2177 H         174.1738  -10.6013  -15.3383 H       362        0    0.0000
   2178 H         174.2764  -11.7888  -16.6335 H       362        0    0.0000
   2179 C         175.9040  -10.3327  -16.6436 C.3     363        0    0.0000
   2180 C         176.8188  -10.8173  -15.5134 C.3     363        0    0.0000
   2181 H         176.2314  -10.7572  -17.6008 H       363        0    0.0000
   2182 H         175.9735   -9.2423  -16.7424 H       363        0    0.0000
   2183 H         176.3385  -11.6380  -14.9664 H       363        0    0.0000
   2184 H         177.7507  -11.2193  -15.9300 H       363        0    0.0000
   2185 C         177.1701   -9.6729  -14.5014 C.3     364        0    0.0000
   2186 C         178.1182  -10.1471  -13.3945 C.3     364        0    0.0000
   2187 H         177.6227   -8.8396  -15.0530 H       364        0    0.0000
   2188 H         176.2399   -9.2915  -14.0621 H       364        0    0.0000
   2189 H         178.6432  -11.0562  -13.7129 H       364        0    0.0000
   2190 H         178.8878   -9.3879  -13.2076 H       364        0    0.0000
   2191 C         177.3639  -10.4429  -12.0525 C.3     365        0    0.0000
   2192 C         178.2341  -11.2158  -11.0552 C.3     365        0    0.0000
   2193 H         177.0407   -9.4919  -11.6115 H       365        0    0.0000
   2194 H         176.4532  -11.0119  -12.2768 H       365        0    0.0000
   2195 H         179.2630  -10.8359  -11.0805 H       365        0    0.0000
   2196 H         177.8655  -11.0591  -10.0339 H       365        0    0.0000
   2197 C         178.2562  -12.7545  -11.3539 C.3     366        0    0.0000
   2198 C         179.1648  -13.5211  -10.3865 C.3     366        0    0.0000
   2199 H         177.2313  -13.1412  -11.2936 H       366        0    0.0000
   2200 H         178.5910  -12.9094  -12.3871 H       366        0    0.0000
   2201 H         179.2249  -12.9917   -9.4275 H       366        0    0.0000
   2202 H         178.7395  -14.5098  -10.1745 H       366        0    0.0000
   2203 C         180.6147  -13.7057  -10.9534 C.3     367        0    0.0000
   2204 C         181.6447  -13.9512   -9.8453 C.3     367        0    0.0000
   2205 H         180.6141  -14.5456  -11.6591 H       367        0    0.0000
   2206 H         180.8862  -12.8115  -11.5280 H       367        0    0.0000
   2207 H         181.3970  -14.8693   -9.2981 H       367        0    0.0000
   2208 H         182.6390  -14.1038  -10.2830 H       367        0    0.0000
   2209 C         181.7178  -12.7608   -8.8279 C.3     368        0    0.0000
   2210 C         182.5997  -13.0850   -7.6170 C.3     368        0    0.0000
   2211 H         182.1032  -11.8748   -9.3474 H       368        0    0.0000
   2212 H         180.7010  -12.5149   -8.4976 H       368        0    0.0000
   2213 H         183.3320  -13.8579   -7.8811 H       368        0    0.0000
   2214 H         183.1717  -12.1974   -7.3198 H       368        0    0.0000
   2215 C         181.7624  -13.5813   -6.3881 C.3     369        0    0.0000
   2216 C         182.6429  -14.2014   -5.2976 C.3     369        0    0.0000
   2217 H         181.1981  -12.7339   -5.9793 H       369        0    0.0000
   2218 H         181.0232  -14.3134   -6.7363 H       369        0    0.0000
   2219 H         183.6796  -13.8617   -5.4129 H       369        0    0.0000
   2220 H         182.3093  -13.8648   -4.3082 H       369        0    0.0000
   2221 C         182.6176  -15.7684   -5.3333 C.3     370        0    0.0000
   2222 C         183.6082  -16.3880   -4.3413 C.3     370        0    0.0000
   2223 H         181.5993  -16.1108   -5.1114 H       370        0    0.0000
   2224 H         182.8473  -16.1026   -6.3526 H       370        0    0.0000
   2225 H         183.2918  -16.1769   -3.3123 H       370        0    0.0000
   2226 H         183.6168  -17.4796   -4.4506 H       370        0    0.0000
   2227 C         185.0663  -15.8485   -4.5424 C.3     371        0    0.0000
   2228 C         186.0192  -16.3256   -3.4409 C.3     371        0    0.0000
   2229 H         185.4320  -16.1753   -5.5238 H       371        0    0.0000
   2230 H         185.0375  -14.7521   -4.5661 H       371        0    0.0000
   2231 H         185.5987  -17.2028   -2.9336 H       371        0    0.0000
   2232 H         186.9731  -16.6429   -3.8802 H       371        0    0.0000
   2233 C         186.2998  -15.2114   -2.3744 C.3     372        0    0.0000
   2234 C         187.0164  -15.7603   -1.1358 C.3     372        0    0.0000
   2235 H         186.9030  -14.4214   -2.8388 H       372        0    0.0000
   2236 H         185.3470  -14.7512   -2.0847 H       372        0    0.0000
   2237 H         188.0105  -16.1340   -1.4110 H       372        0    0.0000
   2238 H         187.1730  -14.9571   -0.4051 H       372        0    0.0000
   2239 C         186.2134  -16.9185   -0.4493 C.3     373        0    0.0000
   2240 C         186.8893  -17.4122    0.8347 C.3     373        0    0.0000
   2241 H         185.1995  -16.5629   -0.2279 H       373        0    0.0000
   2242 H         186.1084  -17.7464   -1.1614 H       373        0    0.0000
   2243 H         187.5795  -16.6486    1.2140 H       373        0    0.0000
   2244 H         186.1375  -17.5740    1.6171 H       373        0    0.0000
   2245 C         187.6832  -18.7457    0.6132 C.3     374        0    0.0000
   2246 C         188.6502  -19.0440    1.7643 C.3     374        0    0.0000
   2247 H         186.9670  -19.5690    0.5006 H       374        0    0.0000
   2248 H         188.2345  -18.6760   -0.3327 H       374        0    0.0000
   2249 H         188.2937  -18.5702    2.6874 H       374        0    0.0000
   2250 H         188.6840  -20.1235    1.9569 H       374        0    0.0000
   2251 C         190.1036  -18.5383    1.4654 C.3     375        0    0.0000
   2252 C         190.9018  -18.2745    2.7469 C.3     375        0    0.0000
   2253 H         190.6182  -19.2856    0.8488 H       375        0    0.0000
   2254 H         190.0427  -17.6221    0.8649 H       375        0    0.0000
   2255 H         191.6703  -17.5139    2.5616 H       375        0    0.0000
   2256 H         190.2416  -17.8723    3.5253 H       375        0    0.0000
   2257 C         191.5949  -19.5705    3.2924 C.3     376        0    0.0000
   2258 C         192.1347  -19.3857    4.7150 C.3     376        0    0.0000
   2259 H         190.8716  -20.3950    3.2687 H       376        0    0.0000
   2260 H         192.4109  -19.8476    2.6135 H       376        0    0.0000
   2261 H         192.3520  -18.3264    4.9001 H       376        0    0.0000
   2262 H         191.3745  -19.6840    5.4475 H       376        0    0.0000
   2263 C         193.4368  -20.2207    4.9695 C.3     377        0    0.0000
   2264 C         193.7245  -20.4072    6.4633 C.3     377        0    0.0000
   2265 H         193.3313  -21.1977    4.4819 H       377        0    0.0000
   2266 H         194.2811  -19.7159    4.4840 H       377        0    0.0000
   2267 H         193.0441  -21.1564    6.8867 H       377        0    0.0000
   2268 H         194.7426  -20.7903    6.6054 H       377        0    0.0000
   2269 C         193.5701  -19.0716    7.2694 C.3     378        0    0.0000
   2270 C         193.9003  -19.2485    8.7555 C.3     378        0    0.0000
   2271 H         194.2268  -18.3130    6.8258 H       378        0    0.0000
   2272 H         192.5425  -18.7053    7.1534 H       378        0    0.0000
   2273 H         194.7552  -18.6177    9.0286 H       378        0    0.0000
   2274 H         193.0548  -18.9168    9.3708 H       378        0    0.0000
   2275 C         194.2348  -20.7369    9.1167 C.3     379        0    0.0000
   2276 C         194.7560  -20.8836   10.5505 C.3     379        0    0.0000
   2277 H         193.3321  -21.3453    8.9804 H       379        0    0.0000
   2278 H         194.9796  -21.1145    8.4052 H       379        0    0.0000
   2279 H         194.5660  -19.9628   11.1159 H       379        0    0.0000
   2280 H         194.2161  -21.6872   11.0666 H       379        0    0.0000
   2281 C         196.2914  -21.1964   10.5955 C.3     380        0    0.0000
   2282 C         196.7128  -21.8489   11.9167 C.3     380        0    0.0000
   2283 H         196.5431  -21.8539    9.7541 H       380        0    0.0000
   2284 H         196.8470  -20.2628   10.4429 H       380        0    0.0000
   2285 H         196.9908  -21.0773   12.6454 H       380        0    0.0000
   2286 H         195.8695  -22.4014   12.3492 H       380        0    0.0000
   2287 C         197.9209  -22.8313   11.7354 C.3     381        0    0.0000
   2288 C         198.7970  -22.9126   12.9903 C.3     381        0    0.0000
   2289 H         197.5329  -23.8258   11.4824 H       381        0    0.0000
   2290 H         198.5207  -22.4998   10.8787 H       381        0    0.0000
   2291 H         199.6069  -23.6365   12.8374 H       381        0    0.0000
   2292 H         199.2731  -21.9426   13.1802 H       381        0    0.0000
   2293 C         197.9785  -23.3308   14.2602 C.3     382        0    0.0000
   2294 C         198.7582  -23.0932   15.5581 C.3     382        0    0.0000
   2295 H         197.0385  -22.7653   14.2771 H       382        0    0.0000
   2296 H         197.7072  -24.3902   14.1729 H       382        0    0.0000
   2297 H         199.1538  -22.0701   15.5773 H       382        0    0.0000
   2298 H         198.0887  -23.1883   16.4220 H       382        0    0.0000
   2299 C         199.9488  -24.0986   15.7285 C.3     383        0    0.0000
   2300 C         200.7064  -23.8843   17.0435 C.3     383        0    0.0000
   2301 H         199.5565  -25.1222   15.6829 H       383        0    0.0000
   2302 H         200.6321  -23.9849   14.8779 H       383        0    0.0000
   2303 H         201.4349  -23.0720   16.9298 H       383        0    0.0000
   2304 H         200.0100  -23.5748   17.8327 H       383        0    0.0000
   2305 C         201.4595  -25.1766   17.5126 C.3     384        0    0.0000
   2306 C         202.5972  -24.8631   18.4906 C.3     384        0    0.0000
   2307 H         200.7372  -25.8564   17.9813 H       384        0    0.0000
   2308 H         201.8542  -25.6958   16.6305 H       384        0    0.0000
   2309 H         203.2173  -24.0480   18.0975 H       384        0    0.0000
   2310 H         202.1864  -24.5139   19.4460 H       384        0    0.0000
   2311 C         203.5106  -26.1087   18.7585 C.3     385        0    0.0000
   2312 C         204.3657  -25.9416   20.0194 C.3     385        0    0.0000
   2313 H         202.8764  -26.9993   18.8494 H       385        0    0.0000
   2314 H         204.1552  -26.2688   17.8853 H       385        0    0.0000
   2315 H         203.7248  -25.7217   20.8822 H       385        0    0.0000
   2316 H         204.8887  -26.8789   20.2462 H       385        0    0.0000
   2317 C         205.4246  -24.7951   19.8714 C.3     386        0    0.0000
   2318 C         205.9708  -24.3306   21.2260 C.3     386        0    0.0000
   2319 H         206.2456  -25.1518   19.2371 H       386        0    0.0000
   2320 H         204.9617  -23.9523   19.3434 H       386        0    0.0000
   2321 H         206.0187  -23.2350   21.2566 H       386        0    0.0000
   2322 H         205.2922  -24.6388   22.0310 H       386        0    0.0000
   2323 C         207.3986  -24.9071   21.5202 C.3     387        0    0.0000
   2324 C         207.7171  -24.9329   23.0191 C.3     387        0    0.0000
   2325 H         207.4634  -25.9202   21.1044 H       387        0    0.0000
   2326 H         208.1416  -24.3001   20.9881 H       387        0    0.0000
   2327 H         207.2787  -24.0562   23.5120 H       387        0    0.0000
   2328 H         207.2629  -25.8161   23.4851 H       387        0    0.0000
   2329 C         209.2595  -24.9510   23.2986 C.3     388        0    0.0000
   2330 C         209.6061  -25.6896   24.5961 C.3     388        0    0.0000
   2331 H         209.7672  -25.4244   22.4491 H       388        0    0.0000
   2332 H         209.6224  -23.9168   23.3461 H       388        0    0.0000
   2333 H         209.2505  -25.1168   25.4615 H       388        0    0.0000
   2334 H         209.0917  -26.6582   24.6264 H       388        0    0.0000
   2335 C         211.1474  -25.9311   24.7487 C.3     389        0    0.0000
   2336 C         211.6016  -25.8784   26.2116 C.3     389        0    0.0000
   2337 H         211.3976  -26.9059   24.3120 H       389        0    0.0000
   2338 H         211.6836  -25.1757   24.1610 H       389        0    0.0000
   2339 H         211.2597  -24.9463   26.6783 H       389        0    0.0000
   2340 H         211.1446  -26.7000   26.7771 H       389        0    0.0000
   2341 C         213.1599  -25.9727   26.3536 C.3     390        0    0.0000
   2342 C         213.5832  -26.7307   27.6167 C.3     390        0    0.0000
   2343 H         213.5668  -26.4682   25.4634 H       390        0    0.0000
   2344 H         213.5758  -24.9576   26.3670 H       390        0    0.0000
   2345 H         213.6236  -26.0443   28.4715 H       390        0    0.0000
   2346 H         212.8379  -27.4971   27.8630 H       390        0    0.0000
   2347 C         214.9820  -27.4197   27.4553 C.3     391        0    0.0000
   2348 C         216.0150  -26.8768   28.4490 C.3     391        0    0.0000
   2349 H         214.8612  -28.5015   27.5917 H       391        0    0.0000
   2350 H         215.3338  -27.2692   26.4271 H       391        0    0.0000
   2351 H         216.0314  -25.7804   28.4132 H       391        0    0.0000
   2352 H         215.7345  -27.1544   29.4725 H       391        0    0.0000
   2353 C         217.4588  -27.4135   28.1576 C.3     392        0    0.0000
   2354 C         218.3837  -27.2815   29.3725 C.3     392        0    0.0000
   2355 H         217.3900  -28.4641   27.8496 H       392        0    0.0000
   2356 H         217.8758  -26.8621   27.3057 H       392        0    0.0000
   2357 H         218.3936  -26.2432   29.7267 H       392        0    0.0000
   2358 H         218.0061  -27.8934   30.2011 H       392        0    0.0000
   2359 C         219.8540  -27.7194   29.0503 C.3     393        0    0.0000
   2360 C         220.8672  -27.1189   30.0311 C.3     393        0    0.0000
   2361 H         219.9102  -28.8147   29.0750 H       393        0    0.0000
   2362 H         220.0971  -27.4145   28.0248 H       393        0    0.0000
   2363 H         220.7982  -26.0241   30.0199 H       393        0    0.0000
   2364 H         220.6350  -27.4387   31.0545 H       393        0    0.0000
   2365 C         222.3401  -27.5359   29.6933 C.3     394        0    0.0000
   2366 C         223.3640  -26.8259   30.5859 C.3     394        0    0.0000
   2367 H         222.4341  -28.6233   29.8045 H       394        0    0.0000
   2368 H         222.5389  -27.3087   28.6386 H       394        0    0.0000
   2369 H         223.2940  -25.7398   30.4481 H       394        0    0.0000
   2370 H         223.1439  -27.0243   31.6421 H       394        0    0.0000
   2371 C         224.8333  -27.2801   30.2819 C.3     395        0    0.0000
   2372 C         225.8618  -26.2062   30.6531 C.3     395        0    0.0000
   2373 H         225.0389  -28.2051   30.8348 H       395        0    0.0000
   2374 H         224.9140  -27.5258   29.2158 H       395        0    0.0000
   2375 H         225.6307  -25.2683   30.1331 H       395        0    0.0000
   2376 H         225.8103  -25.9915   31.7277 H       395        0    0.0000
   2377 C         227.3258  -26.6360   30.2932 C.3     396        0    0.0000
   2378 C         228.3281  -25.4905   30.4724 C.3     396        0    0.0000
   2379 H         227.6099  -27.4867   30.9250 H       396        0    0.0000
   2380 H         227.3445  -26.9935   29.2562 H       396        0    0.0000
   2381 H         228.0234  -24.6262   29.8692 H       396        0    0.0000
   2382 H         228.3364  -25.1579   31.5178 H       396        0    0.0000
   2383 C         229.7833  -25.9048   30.0624 C.3     397        0    0.0000
   2384 C         230.7825  -24.7541   30.2252 C.3     397        0    0.0000
   2385 H         230.0928  -26.7612   30.6743 H       397        0    0.0000
   2386 H         229.7727  -26.2493   29.0209 H       397        0    0.0000
   2387 H         230.4615  -23.8901   29.6302 H       397        0    0.0000
   2388 H         230.8090  -24.4241   31.2711 H       397        0    0.0000
   2389 C         232.2319  -25.1593   29.7863 C.3     398        0    0.0000
   2390 C         233.1996  -23.9710   29.8100 C.3     398        0    0.0000
   2391 H         232.5941  -25.9526   30.4519 H       398        0    0.0000
   2392 H         232.1889  -25.5893   28.7780 H       398        0    0.0000
   2393 H         232.8310  -23.1726   29.1540 H       398        0    0.0000
   2394 H         233.2520  -23.5487   30.8212 H       398        0    0.0000
   2395 C         234.6448  -24.3724   29.3545 C.3     399        0    0.0000
   2396 C         235.5861  -23.1653   29.2780 C.3     399        0    0.0000
   2397 H         235.0429  -25.1160   30.0560 H       399        0    0.0000
   2398 H         234.5833  -24.8641   28.3757 H       399        0    0.0000
   2399 H         235.1727  -22.4084   28.6000 H       399        0    0.0000
   2400 H         235.6716  -22.6920   30.2640 H       399        0    0.0000
   2401 C         237.0194  -23.5601   28.7809 C.3     400        0    0.0000
   2402 C         237.9420  -22.3440   28.6434 C.3     400        0    0.0000
   2403 H         237.4513  -24.2822   29.4849 H       400        0    0.0000
   2404 H         236.9298  -24.0753   27.8165 H       400        0    0.0000
   2405 H         237.4980  -21.6105   27.9589 H       400        0    0.0000
   2406 H         238.0518  -21.8435   29.6134 H       400        0    0.0000
   2407 C         239.3643  -22.7343   28.1122 C.3     401        0    0.0000
   2408 C         240.2835  -21.5168   27.9647 C.3     401        0    0.0000
   2409 H         239.8114  -23.4620   28.8008 H       401        0    0.0000
   2410 H         239.2539  -23.2417   27.1458 H       401        0    0.0000
   2411 H         239.8062  -20.7598   27.3301 H       401        0    0.0000
   2412 H         240.4483  -21.0491   28.9432 H       401        0    0.0000
   2413 C         241.6730  -21.8932   27.3440 C.3     402        0    0.0000
   2414 C         242.5845  -20.6724   27.1774 C.3     402        0    0.0000
   2415 H         242.1569  -22.6391   27.9866 H       402        0    0.0000
   2416 H         241.5074  -22.3745   26.3722 H       402        0    0.0000
   2417 H         242.0671  -19.8918   26.6061 H       402        0    0.0000
   2418 H         242.8193  -20.2415   28.1586 H       402        0    0.0000
   2419 C         243.9257  -21.0276   26.4476 C.3     403        0    0.0000
   2420 C         244.8639  -19.8208   26.3368 C.3     403        0    0.0000
   2421 H         244.4209  -21.8402   26.9936 H       403        0    0.0000
   2422 H         243.6925  -21.4158   25.4484 H       403        0    0.0000
   2423 H         244.2893  -18.9188   26.0923 H       403        0    0.0000
   2424 H         245.3503  -19.6325   27.3020 H       403        0    0.0000
   2425 C         245.9701  -20.0265   25.2452 C.3     404        0    0.0000
   2426 C         246.9754  -18.8701   25.2118 C.3     404        0    0.0000
   2427 H         246.4905  -20.9718   25.4429 H       404        0    0.0000
   2428 H         245.4858  -20.1322   24.2665 H       404        0    0.0000
   2429 H         246.9498  -18.3219   26.1618 H       404        0    0.0000
   2430 H         247.9946  -19.2607   25.1010 H       404        0    0.0000
   2431 C         246.6887  -17.8671   24.0417 C.3     405        0    0.0000
   2432 C         247.8527  -16.8974   23.8095 C.3     405        0    0.0000
   2433 H         246.4873  -18.4389   23.1273 H       405        0    0.0000
   2434 H         245.7733  -17.3079   24.2716 H       405        0    0.0000
   2435 H         248.7387  -17.4478   23.4697 H       405        0    0.0000
   2436 H         247.5978  -16.1878   23.0126 H       405        0    0.0000
   2437 C         248.2228  -16.0930   25.1030 C.3     406        0    0.0000
   2438 C         249.5172  -15.2892   24.9367 C.3     406        0    0.0000
   2439 H         247.3920  -15.4210   25.3514 H       406        0    0.0000
   2440 H         248.3210  -16.7952   25.9402 H       406        0    0.0000
   2441 H         249.7545  -15.1744   23.8718 H       406        0    0.0000
   2442 H         249.3866  -14.2779   25.3412 H       406        0    0.0000
   2443 C         250.7342  -15.9675   25.6553 C.3     407        0    0.0000
   2444 C         252.0791  -15.4512   25.1321 C.3     407        0    0.0000
   2445 H         250.6548  -15.7843   26.7340 H       407        0    0.0000
   2446 H         250.6676  -17.0534   25.5144 H       407        0    0.0000
   2447 H         251.9408  -14.4880   24.6254 H       407        0    0.0000
   2448 H         252.7644  -15.2710   25.9696 H       407        0    0.0000
   2449 C         252.7533  -16.4549   24.1344 C.3     408        0    0.0000
   2450 C         253.7433  -15.7608   23.1925 C.3     408        0    0.0000
   2451 H         253.2660  -17.2353   24.7103 H       408        0    0.0000
   2452 H         251.9694  -16.9560   23.5531 H       408        0    0.0000
   2453 H         254.3009  -16.5087   22.6153 H       408        0    0.0000
   2454 H         253.2013  -15.1424   22.4663 H       408        0    0.0000
   2455 C         254.7635  -14.8555   23.9652 C.3     409        0    0.0000
   2456 C         255.4583  -13.8464   23.0442 C.3     409        0    0.0000
   2457 H         254.2319  -14.3287   24.7673 H       409        0    0.0000
   2458 H         255.5092  -15.4975   24.4502 H       409        0    0.0000
   2459 H         254.7208  -13.1524   22.6224 H       409        0    0.0000
   2460 H         256.1690  -13.2398   23.6190 H       409        0    0.0000
   2461 C         256.2251  -14.5448   21.8688 C.3     410        0    0.0000
   2462 C         256.7340  -13.5401   20.8292 C.3     410        0    0.0000
   2463 H         257.0655  -15.1147   22.2840 H       410        0    0.0000
   2464 H         255.5558  -15.2722   21.3928 H       410        0    0.0000
   2465 H         256.4652  -13.8748   19.8196 H       410        0    0.0000
   2466 H         256.2496  -12.5671   20.9779 H       410        0    0.0000
   2467 C         258.2881  -13.3471   20.9006 C.3     411        0    0.0000
   2468 C         258.7483  -12.0713   20.1870 C.3     411        0    0.0000
   2469 H         258.5929  -13.3197   21.9541 H       411        0    0.0000
   2470 H         258.7741  -14.2238   20.4547 H       411        0    0.0000
   2471 H         258.1925  -11.9430   19.2499 H       411        0    0.0000
   2472 H         258.5279  -11.1932   20.8067 H       411        0    0.0000
   2473 C         260.2826  -12.0907   19.8658 C.3     412        0    0.0000
   2474 C         260.8682  -10.6797   19.7429 C.3     412        0    0.0000
   2475 H         260.8023  -12.6461   20.6563 H       412        0    0.0000
   2476 H         260.4416  -12.6465   18.9335 H       412        0    0.0000
   2477 H         260.4065  -10.1530   18.8985 H       412        0    0.0000
   2478 H         260.6363  -10.0965   20.6427 H       412        0    0.0000
   2479 C         262.4223  -10.6972   19.5387 C.3     413        0    0.0000
   2480 C         262.8785   -9.7023   18.4658 C.3     413        0    0.0000
   2481 H         262.9073  -10.4672   20.4954 H       413        0    0.0000
   2482 H         262.7316  -11.7136   19.2650 H       413        0    0.0000
   2483 H         262.1462   -9.6672   17.6496 H       413        0    0.0000
   2484 H         262.9286   -8.6908   18.8877 H       413        0    0.0000
   2485 C         264.2810  -10.0717   17.8707 C.3     414        0    0.0000
   2486 C         265.1185   -8.8304   17.5441 C.3     414        0    0.0000
   2487 H         264.8138  -10.7066   18.5894 H       414        0    0.0000
   2488 H         264.1336  -10.6748   16.9663 H       414        0    0.0000
   2489 H         264.4612   -7.9842   17.3089 H       414        0    0.0000
   2490 H         265.7110   -8.5355   18.4190 H       414        0    0.0000
   2491 C         266.0873   -9.0688   16.3349 C.3     415        0    0.0000
   2492 C         266.7637   -7.7749   15.8687 C.3     415        0    0.0000
   2493 H         266.8457   -9.8048   16.6291 H       415        0    0.0000
   2494 H         265.5191   -9.5148   15.5092 H       415        0    0.0000
   2495 H         266.7776   -7.7314   14.7726 H       415        0    0.0000
   2496 H         266.1891   -6.9055   16.2113 H       415        0    0.0000
   2497 C         268.2340   -7.6491   16.3979 C.3     416        0    0.0000
   2498 C         268.8912   -6.3295   15.9790 C.3     416        0    0.0000
   2499 H         268.2245   -7.7341   17.4916 H       416        0    0.0000
   2500 H         268.8192   -8.4971   16.0211 H       416        0    0.0000
   2501 H         268.1240   -5.6080   15.6718 H       416        0    0.0000
   2502 H         269.4187   -5.8845   16.8318 H       416        0    0.0000
   2503 C         269.9069   -6.5196   14.8001 C.3     417        0    0.0000
   2504 C         270.6260   -5.2158   14.4369 C.3     417        0    0.0000
   2505 H         270.6385   -7.2863   15.0839 H       417        0    0.0000
   2506 H         269.3670   -6.9072   13.9272 H       417        0    0.0000
   2507 H         269.9036   -4.4790   14.0643 H       417        0    0.0000
   2508 H         271.0882   -4.7794   15.3311 H       417        0    0.0000
   2509 C         271.7343   -5.4315   13.3494 C.3     418        0    0.0000
   2510 C         272.3779   -4.1130   12.9064 C.3     418        0    0.0000
   2511 H         272.4991   -6.1065   13.7531 H       418        0    0.0000
   2512 H         271.2883   -5.9410   12.4863 H       418        0    0.0000
   2513 H         271.6859   -3.5535   12.2648 H       418        0    0.0000
   2514 H         272.5789   -3.4804   13.7799 H       418        0    0.0000
   2515 C         273.7191   -4.3390   12.1268 C.3     419        0    0.0000
   2516 C         274.6164   -3.0966   12.1425 C.3     419        0    0.0000
   2517 H         274.2478   -5.1906   12.5724 H       419        0    0.0000
   2518 H         273.4839   -4.6201   11.0928 H       419        0    0.0000
   2519 H         274.2068   -2.3282   11.4752 H       419        0    0.0000
   2520 H         274.6380   -2.6608   13.1491 H       419        0    0.0000
   2521 C         276.0854   -3.4191   11.7000 C.3     420        0    0.0000
   2522 C         276.6714   -2.3304   10.7943 C.3     420        0    0.0000
   2523 H         276.7067   -3.5375   12.5964 H       420        0    0.0000
   2524 H         276.0941   -4.3854   11.1807 H       420        0    0.0000
   2525 H         275.8836   -1.9028   10.1619 H       420        0    0.0000
   2526 H         277.0679   -1.5081   11.4028 H       420        0    0.0000
   2527 C         277.8174   -2.8763    9.8743 C.3     421        0    0.0000
   2528 C         279.0113   -1.9180    9.8029 C.3     421        0    0.0000
   2529 H         278.1412   -3.8530   10.2547 H       421        0    0.0000
   2530 H         277.4123   -3.0482    8.8693 H       421        0    0.0000
   2531 H         278.6594   -0.8886    9.6609 H       421        0    0.0000
   2532 H         279.5637   -1.9341   10.7506 H       421        0    0.0000
   2533 C         279.9955   -2.2807    8.6380 C.3     422        0    0.0000
   2534 C         281.0538   -1.1953    8.4125 C.3     422        0    0.0000
   2535 H         280.4808   -3.2369    8.8700 H       422        0    0.0000
   2536 H         279.4150   -2.4366    7.7203 H       422        0    0.0000
   2537 H         280.5951   -0.3132    7.9489 H       422        0    0.0000
   2538 H         281.4666   -0.8668    9.3744 H       422        0    0.0000
   2539 C         282.2290   -1.6915    7.5013 C.3     423        0    0.0000
   2540 C         283.4096   -0.7143    7.4926 C.3     423        0    0.0000
   2541 H         282.5586   -2.6766    7.8545 H       423        0    0.0000
   2542 H         281.8502   -1.8330    6.4815 H       423        0    0.0000
   2543 H         283.2924    0.0244    8.2951 H       423        0    0.0000
   2544 H         284.3445   -1.2521    7.6935 H       423        0    0.0000
   2545 C         283.5452    0.0415    6.1259 C.3     424        0    0.0000
   2546 C         284.8713    0.8012    6.0113 C.3     424        0    0.0000
   2547 H         283.4566   -0.6858    5.3093 H       424        0    0.0000
   2548 H         282.7031    0.7367    6.0213 H       424        0    0.0000
   2549 H         284.7009    1.7909    5.5697 H       424        0    0.0000
   2550 H         285.2955    0.9701    7.0089 H       424        0    0.0000
   2551 C         285.9228    0.0328    5.1387 C.3     425        0    0.0000
   2552 C         287.1789    0.8695    4.8720 C.3     425        0    0.0000
   2553 H         286.1933   -0.8993    5.6502 H       425        0    0.0000
   2554 H         285.4530   -0.2536    4.1896 H       425        0    0.0000
   2555 H         286.8995    1.9061    4.6462 H       425        0    0.0000
   2556 H         287.8076    0.9013    5.7705 H       425        0    0.0000
   2557 C         288.0276    0.3042    3.6813 C.3     426        0    0.0000
   2558 C         289.2862    1.1381    3.4177 C.3     426        0    0.0000
   2559 H         288.3040   -0.7335    3.9055 H       426        0    0.0000
   2560 H         287.4000    0.2758    2.7819 H       426        0    0.0000
   2561 H         289.0725    2.2023    3.5771 H       426        0    0.0000
   2562 H         290.0745    0.8649    4.1300 H       426        0    0.0000
   2563 C         289.8325    0.9451    1.9610 C.3     427        0    0.0000
   2564 C         291.1769    1.6491    1.7469 C.3     427        0    0.0000
   2565 H         289.9341   -0.1287    1.7609 H       427        0    0.0000
   2566 H         289.0894    1.3290    1.2510 H       427        0    0.0000
   2567 H         291.1439    2.2524    0.8311 H       427        0    0.0000
   2568 H         291.3745    2.3424    2.5738 H       427        0    0.0000
   2569 C         292.3681    0.6356    1.6416 C.3     428        0    0.0000
   2570 C         293.7039    1.3355    1.3678 C.3     428        0    0.0000
   2571 H         292.4282    0.0623    2.5750 H       428        0    0.0000
   2572 H         292.1502   -0.0845    0.8431 H       428        0    0.0000
   2573 H         293.5338    2.2671    0.8140 H       428        0    0.0000
   2574 H         294.1831    1.6148    2.3143 H       428        0    0.0000
   2575 C         294.6903    0.4336    0.5487 C.3     429        0    0.0000
   2576 C         296.1581    0.7721    0.8319 C.3     429        0    0.0000
   2577 H         294.4930   -0.6178    0.7921 H       429        0    0.0000
   2578 H         294.4757    0.5552   -0.5203 H       429        0    0.0000
   2579 H         296.3893    1.7796    0.4646 H       429        0    0.0000
   2580 H         296.3398    0.7817    1.9138 H       429        0    0.0000
   2581 C         297.1428   -0.2480    0.1632 C.3     430        0    0.0000
   2582 C         298.5957   -0.0209    0.5947 C.3     430        0    0.0000
   2583 H         296.8278   -1.2661    0.4234 H       430        0    0.0000
   2584 H         297.0560   -0.1604   -0.9270 H       430        0    0.0000
   2585 H         299.0163    0.8406    0.0613 H       430        0    0.0000
   2586 H         298.6373    0.2198    1.6642 H       430        0    0.0000
   2587 C         299.4988   -1.2733    0.3233 C.3     431        0    0.0000
   2588 C         300.8711   -0.8886   -0.2405 C.3     431        0    0.0000
   2589 H         299.6199   -1.8316    1.2598 H       431        0    0.0000
   2590 H         298.9783   -1.9396   -0.3758 H       431        0    0.0000
   2591 H         300.7505   -0.2074   -1.0919 H       431        0    0.0000
   2592 H         301.4505   -0.3465    0.5172 H       431        0    0.0000
   2593 C         301.6938   -2.1391   -0.7063 C.3     432        0    0.0000
   2594 C         303.1624   -1.7983   -0.9823 C.3     432        0    0.0000
   2595 H         301.6264   -2.9147    0.0666 H       432        0    0.0000
   2596 H         301.2275   -2.5527   -1.6092 H       432        0    0.0000
   2597 H         303.2361   -0.8176   -1.4683 H       432        0    0.0000
   2598 H         303.7152   -1.7242   -0.0376 H       432        0    0.0000
   2599 C         303.8593   -2.8672   -1.8930 C.3     433        0    0.0000
   2600 C         304.9311   -3.6624   -1.1394 C.3     433        0    0.0000
   2601 H         303.0948   -3.5473   -2.2885 H       433        0    0.0000
   2602 H         304.3057   -2.3588   -2.7566 H       433        0    0.0000
   2603 H         305.7281   -2.9901   -0.7986 H       433        0    0.0000
   2604 H         304.4983   -4.1190   -0.2407 H       433        0    0.0000
   2605 C         305.5654   -4.7906   -2.0239 C.3     434        0    0.0000
   2606 C         306.7249   -5.5004   -1.3163 C.3     434        0    0.0000
   2607 H         304.7846   -5.5154   -2.2861 H       434        0    0.0000
   2608 H         305.9135   -4.3481   -2.9654 H       434        0    0.0000
   2609 H         307.3073   -4.7779   -0.7312 H       434        0    0.0000
   2610 H         306.3358   -6.2403   -0.6060 H       434        0    0.0000
   2611 C         307.6831   -6.2232   -2.3248 C.3     435        0    0.0000
   2612 C         308.0323   -7.6464   -1.8758 C.3     435        0    0.0000
   2613 H         307.2050   -6.2469   -3.3118 H       435        0    0.0000
   2614 H         308.5981   -5.6275   -2.4321 H       435        0    0.0000
   2615 H         308.3493   -7.6424   -0.8255 H       435        0    0.0000
   2616 H         307.1443   -8.2879   -1.9343 H       435        0    0.0000
   2617 C         309.1721   -8.2808   -2.7452 C.3     436        0    0.0000
   2618 C         309.6951   -9.5926   -2.1497 C.3     436        0    0.0000
   2619 H         308.7891   -8.4540   -3.7585 H       436        0    0.0000
   2620 H         309.9911   -7.5567   -2.8375 H       436        0    0.0000
   2621 H         309.7966   -9.4977   -1.0615 H       436        0    0.0000
   2622 H         308.9753  -10.4008   -2.3296 H       436        0    0.0000
   2623 C         311.0816  -10.0075   -2.7522 C.3     437        0    0.0000
   2624 C         311.4707  -11.4424   -2.3800 C.3     437        0    0.0000
   2625 H         311.0395   -9.9001   -3.8431 H       437        0    0.0000
   2626 H         311.8461   -9.3060   -2.3958 H       437        0    0.0000
   2627 H         312.5629  -11.5407   -2.3515 H       437        0    0.0000
   2628 H         311.1064  -11.6819   -1.3733 H       437        0    0.0000
   2629 C         310.8949  -12.4948   -3.3892 C.3     438        0    0.0000
   2630 C         311.3342  -13.9239   -3.0520 C.3     438        0    0.0000
   2631 H         309.7999  -12.4269   -3.3846 H       438        0    0.0000
   2632 H         311.2227  -12.2296   -4.4020 H       438        0    0.0000
   2633 H         311.0898  -14.1561   -2.0080 H       438        0    0.0000
   2634 H         310.7840  -14.6427   -3.6717 H       438        0    0.0000
   2635 C         312.8713  -14.1403   -3.2712 C.3     439        0    0.0000
   2636 C         313.3784  -15.4230   -2.6031 C.3     439        0    0.0000
   2637 H         313.0738  -14.1721   -4.3489 H       439        0    0.0000
   2638 H         313.4108  -13.2711   -2.8749 H       439        0    0.0000
   2639 H         314.4379  -15.3161   -2.3391 H       439        0    0.0000
   2640 H         312.8364  -15.5985   -1.6656 H       439        0    0.0000
   2641 C         313.2119  -16.6793   -3.5258 C.3     440        0    0.0000
   2642 C         313.9913  -17.8912   -3.0034 C.3     440        0    0.0000
   2643 H         312.1449  -16.9228   -3.6024 H       440        0    0.0000
   2644 H         313.5497  -16.4223   -4.5374 H       440        0    0.0000
   2645 H         314.9587  -17.9654   -3.5153 H       440        0    0.0000
   2646 H         314.2088  -17.7666   -1.9353 H       440        0    0.0000
   2647 C         313.2080  -19.2339   -3.2062 C.3     441        0    0.0000
   2648 C         313.8240  -20.3913   -2.4126 C.3     441        0    0.0000
   2649 H         312.1643  -19.0836   -2.9033 H       441        0    0.0000
   2650 H         313.1937  -19.4768   -4.2759 H       441        0    0.0000
   2651 H         314.5509  -20.0052   -1.6873 H       441        0    0.0000
   2652 H         313.0468  -20.9074   -1.8354 H       441        0    0.0000
   2653 C         314.5400  -21.4328   -3.3400 C.3     442        0    0.0000
   2654 C         315.4494  -22.3828   -2.5529 C.3     442        0    0.0000
   2655 H         313.7780  -22.0054   -3.8831 H       442        0    0.0000
   2656 H         315.1245  -20.8915   -4.0944 H       442        0    0.0000
   2657 H         316.3220  -21.8382   -2.1713 H       442        0    0.0000
   2658 H         314.9161  -22.7757   -1.6784 H       442        0    0.0000
   2659 C         315.9470  -23.5871   -3.4244 C.3     443        0    0.0000
   2660 C         316.9691  -24.4566   -2.6841 C.3     443        0    0.0000
   2661 H         315.0806  -24.1927   -3.7182 H       443        0    0.0000
   2662 H         316.3864  -23.1959   -4.3503 H       443        0    0.0000
   2663 H         317.8025  -23.8377   -2.3291 H       443        0    0.0000
   2664 H         316.5083  -24.9045   -1.7949 H       443        0    0.0000
   2665 C         317.5403  -25.6025   -3.5886 C.3     444        0    0.0000
   2666 C         317.6121  -26.9439   -2.8507 C.3     444        0    0.0000
   2667 H         316.9086  -25.6972   -4.4805 H       444        0    0.0000
   2668 H         318.5385  -25.3121   -3.9390 H       444        0    0.0000
   2669 H         318.2696  -26.8578   -1.9767 H       444        0    0.0000
   2670 H         316.6196  -27.2187   -2.4724 H       444        0    0.0000
   2671 C         318.1407  -28.0995   -3.7686 C.3     445        0    0.0000
   2672 C         318.8846  -29.1784   -2.9740 C.3     445        0    0.0000
   2673 H         317.2913  -28.5438   -4.3023 H       445        0    0.0000
   2674 H         318.8024  -27.6706   -4.5314 H       445        0    0.0000
   2675 H         319.8106  -29.4562   -3.4926 H       445        0    0.0000
   2676 H         319.1786  -28.7870   -1.9922 H       445        0    0.0000
   2677 C         318.0165  -30.4669   -2.7649 C.3     446        0    0.0000
   2678 C         318.7807  -31.5677   -2.0211 C.3     446        0    0.0000
   2679 H         317.1104  -30.1964   -2.2088 H       446        0    0.0000
   2680 H         317.6870  -30.8341   -3.7448 H       446        0    0.0000
   2681 H         319.8611  -31.3937   -2.0983 H       446        0    0.0000
   2682 H         318.5329  -31.5415   -0.9527 H       446        0    0.0000
   2683 C         318.4579  -32.9965   -2.5797 C.3     447        0    0.0000
   2684 C         319.4420  -34.0553   -2.0703 C.3     447        0    0.0000
   2685 H         317.4339  -33.2655   -2.2923 H       447        0    0.0000
   2686 H         318.4783  -32.9604   -3.6760 H       447        0    0.0000
   2687 H         320.4680  -33.6702   -2.1202 H       447        0    0.0000
   2688 H         319.2407  -34.2794   -1.0154 H       447        0    0.0000
   2689 C         319.3613  -35.3866   -2.8941 C.3     448        0    0.0000
   2690 C         320.2470  -36.4894   -2.3039 C.3     448        0    0.0000
   2691 H         318.3166  -35.7199   -2.9260 H       448        0    0.0000
   2692 H         319.6578  -35.1799   -3.9299 H       448        0    0.0000
   2693 H         321.2996  -36.1815   -2.3314 H       448        0    0.0000
   2694 H         319.9935  -36.6512   -1.2489 H       448        0    0.0000
   2695 C         320.0975  -37.8470   -3.0735 C.3     449        0    0.0000
   2696 C         320.9770  -38.9520   -2.4783 C.3     449        0    0.0000
   2697 H         319.0439  -38.1518   -3.0513 H       449        0    0.0000
   2698 H         320.3568  -37.6864   -4.1274 H       449        0    0.0000
   2699 H         322.0344  -38.7410   -2.6805 H       449        0    0.0000
   2700 H         320.8636  -38.9764   -1.3873 H       449        0    0.0000
   2701 C         320.6249  -40.3667   -3.0546 C.3     450        0    0.0000
   2702 C         321.3864  -41.4900   -2.3424 C.3     450        0    0.0000
   2703 H         319.5437  -40.5273   -2.9615 H       450        0    0.0000
   2704 H         320.8539  -40.3784   -4.1274 H       450        0    0.0000
   2705 H         322.2710  -41.0831   -1.8370 H       450        0    0.0000
   2706 H         320.7561  -41.9366   -1.5634 H       450        0    0.0000
   2707 C         321.8432  -42.6177   -3.3308 C.3     451        0    0.0000
   2708 C         322.4314  -43.8288   -2.5985 C.3     451        0    0.0000
   2709 H         320.9826  -42.9263   -3.9372 H       451        0    0.0000
   2710 H         322.5841  -42.2012   -4.0244 H       451        0    0.0000
   2711 H         322.0875  -43.8420   -1.5568 H       451        0    0.0000
   2712 H         322.0740  -44.7576   -3.0601 H       451        0    0.0000
   2713 C         323.9990  -43.8281   -2.6131 C.3     452        0    0.0000
   2714 C         324.5880  -44.9878   -1.8025 C.3     452        0    0.0000
   2715 H         324.3430  -43.8834   -3.6534 H       452        0    0.0000
   2716 H         324.3559  -42.8706   -2.2138 H       452        0    0.0000
   2717 H         325.6783  -44.8854   -1.7368 H       452        0    0.0000
   2718 H         324.2065  -44.9600   -0.7742 H       452        0    0.0000
   2719 C         324.2484  -46.3838   -2.4297 C.3     453        0    0.0000
   2720 C         324.4367  -47.5307   -1.4307 C.3     453        0    0.0000
   2721 H         323.2130  -46.3664   -2.7917 H       453        0    0.0000
   2722 H         324.8866  -46.5415   -3.3080 H       453        0    0.0000
   2723 H         325.4685  -47.5396   -1.0582 H       453        0    0.0000
   2724 H         323.7883  -47.3802   -0.5586 H       453        0    0.0000
   2725 C         324.1159  -48.9286   -2.0635 C.3     454        0    0.0000
   2726 C         324.9941  -50.0434   -1.4850 C.3     454        0    0.0000
   2727 H         323.0565  -49.1584   -1.8948 H       454        0    0.0000
   2728 H         324.2554  -48.8652   -3.1499 H       454        0    0.0000
   2729 H         326.0497  -49.7462   -1.5182 H       454        0    0.0000
   2730 H         324.7463  -50.2079   -0.4291 H       454        0    0.0000
   2731 C         324.8253  -51.3955   -2.2602 C.3     455        0    0.0000
   2732 C         325.0695  -52.6138   -1.3630 C.3     455        0    0.0000
   2733 H         323.8140  -51.4365   -2.6834 H       455        0    0.0000
   2734 H         325.5220  -51.4066   -3.1076 H       455        0    0.0000
   2735 H         326.1446  -52.7405   -1.1850 H       455        0    0.0000
   2736 H         324.6040  -52.4579   -0.3819 H       455        0    0.0000
   2737 C         324.5016  -53.9348   -1.9874 C.3     456        0    0.0000
   2738 C         325.4092  -55.1406   -1.7203 C.3     456        0    0.0000
   2739 H         323.5012  -54.1187   -1.5764 H       456        0    0.0000
   2740 H         324.3766  -53.7901   -3.0677 H       456        0    0.0000
   2741 H         326.2327  -55.1594   -2.4449 H       456        0    0.0000
   2742 H         325.8660  -55.0548   -0.7265 H       456        0    0.0000
   2743 C         324.6319  -56.4994   -1.8035 C.3     457        0    0.0000
   2744 C         325.3941  -57.6467   -1.1315 C.3     457        0    0.0000
   2745 H         323.6490  -56.3739   -1.3325 H       457        0    0.0000
   2746 H         324.4475  -56.7373   -2.8584 H       457        0    0.0000
   2747 H         326.1714  -57.2452   -0.4696 H       457        0    0.0000
   2748 H         324.7137  -58.2313   -0.4998 H       457        0    0.0000
   2749 C         326.0645  -58.6059   -2.1745 C.3     458        0    0.0000
   2750 C         326.5931  -59.8903   -1.5266 C.3     458        0    0.0000
   2751 H         325.3306  -58.8513   -2.9521 H       458        0    0.0000
   2752 H         326.8832  -58.0709   -2.6717 H       458        0    0.0000
   2753 H         327.6653  -59.7918   -1.3160 H       458        0    0.0000
   2754 H         326.0968  -60.0572   -0.5626 H       458        0    0.0000
   2755 C         326.3701  -61.1489   -2.4342 C.3     459        0    0.0000
   2756 C         326.9662  -62.4205   -1.8206 C.3     459        0    0.0000
   2757 H         325.2934  -61.2797   -2.5989 H       459        0    0.0000
   2758 H         326.8185  -60.9597   -3.4174 H       459        0    0.0000
   2759 H         327.4758  -63.0083   -2.5941 H       459        0    0.0000
   2760 H         327.7253  -62.1576   -1.0735 H       459        0    0.0000
   2761 C         325.8768  -63.3186   -1.1394 C.3     460        0    0.0000
   2762 C         326.4883  -64.5140   -0.4005 C.3     460        0    0.0000
   2763 H         325.2961  -62.7023   -0.4419 H       460        0    0.0000
   2764 H         325.1767  -63.6694   -1.9077 H       460        0    0.0000
   2765 H         327.5757  -64.3913   -0.3217 H       460        0    0.0000
   2766 H         326.1014  -64.5604    0.6250 H       460        0    0.0000
   2767 C         326.1841  -65.8745   -1.1173 C.3     461        0    0.0000
   2768 C         327.1285  -66.9935   -0.6647 C.3     461        0    0.0000
   2769 H         325.1432  -66.1559   -0.9150 H       461        0    0.0000
   2770 H         326.2659  -65.7289   -2.2016 H       461        0    0.0000
   2771 H         328.1225  -66.8482   -1.1056 H       461        0    0.0000
   2772 H         327.2586  -66.9585    0.4241 H       461        0    0.0000
   2773 C         326.6011  -68.4144   -1.0651 C.3     462        0    0.0000
   2774 C         327.4080  -69.5399   -0.4083 C.3     462        0    0.0000
   2775 H         325.5447  -68.4929   -0.7796 H       462        0    0.0000
   2776 H         326.6402  -68.5113   -2.1572 H       462        0    0.0000
   2777 H         328.4346  -69.5417   -0.7950 H       462        0    0.0000
   2778 H         327.4789  -69.3702    0.6732 H       462        0    0.0000
   2779 C         326.7716  -70.9507   -0.6578 C.3     463        0    0.0000
   2780 C         327.7072  -72.0915   -0.2427 C.3     463        0    0.0000
   2781 H         325.8283  -71.0165   -0.1015 H       463        0    0.0000
   2782 H         326.5172  -71.0408   -1.7211 H       463        0    0.0000
   2783 H         328.6183  -72.0718   -0.8533 H       463        0    0.0000
   2784 H         328.0233  -71.9584    0.7993 H       463        0    0.0000
   2785 C         327.0307  -73.4980   -0.3898 C.3     464        0    0.0000
   2786 C         327.9761  -74.6405   -0.0027 C.3     464        0    0.0000
   2787 H         326.1312  -73.5251    0.2377 H       464        0    0.0000
   2788 H         326.6953  -73.6223   -1.4269 H       464        0    0.0000
   2789 H         328.8375  -74.6625   -0.6818 H       464        0    0.0000
   2790 H         328.3742  -74.4740    1.0059 H       464        0    0.0000
   2791 C         327.2665  -76.0378   -0.0415 C.3     465        0    0.0000
   2792 C         328.2616  -77.1980    0.0715 C.3     465        0    0.0000
   2793 H         326.5370  -76.0868    0.7765 H       465        0    0.0000
   2794 H         326.6977  -76.1197   -0.9761 H       465        0    0.0000
   2795 H         328.8825  -77.2503   -0.8314 H       465        0    0.0000
   2796 H         328.9438  -77.0277    0.9136 H       465        0    0.0000
   2797 C         327.5451  -78.5778    0.2727 C.3     466        0    0.0000
   2798 C         328.5181  -79.7576    0.1718 C.3     466        0    0.0000
   2799 H         327.0511  -78.5802    1.2522 H       466        0    0.0000
   2800 H         326.7531  -78.6780   -0.4798 H       466        0    0.0000
   2801 H         328.8869  -79.8543   -0.8569 H       466        0    0.0000
   2802 H         329.3954  -79.5770    0.8053 H       466        0    0.0000
   2803 C         327.8557  -81.1123    0.6005 C.3     467        0    0.0000
   2804 C         328.6764  -82.3271    0.1538 C.3     467        0    0.0000
   2805 H         327.7375  -81.1186    1.6911 H       467        0    0.0000
   2806 H         326.8463  -81.1628    0.1739 H       467        0    0.0000
   2807 H         328.6721  -82.4022   -0.9407 H       467        0    0.0000
   2808 H         329.7237  -82.2057    0.4571 H       467        0    0.0000
   2809 C         328.1287  -83.6676    0.7544 C.3     468        0    0.0000
   2810 C         328.7335  -84.8996    0.0724 C.3     468        0    0.0000
   2811 H         328.3458  -83.6881    1.8295 H       468        0    0.0000
   2812 H         327.0363  -83.6800    0.6533 H       468        0    0.0000
   2813 H         328.4066  -84.9491   -0.9736 H       468        0    0.0000
   2814 H         329.8278  -84.8219    0.0572 H       468        0    0.0000
   2815 C         328.3317  -86.2337    0.7910 C.3     469        0    0.0000
   2816 C         328.5791  -87.4644   -0.0884 C.3     469        0    0.0000
   2817 H         328.9013  -86.3179    1.7247 H       469        0    0.0000
   2818 H         327.2726  -86.1789    1.0719 H       469        0    0.0000
   2819 H         327.8972  -87.4558   -0.9478 H       469        0    0.0000
   2820 H         329.5980  -87.4380   -0.4943 H       469        0    0.0000
   2821 C         328.3832  -88.8060    0.6986 C.3     470        0    0.0000
   2822 C         328.2058  -90.0073   -0.2364 C.3     470        0    0.0000
   2823 H         329.2506  -88.9625    1.3519 H       470        0    0.0000
   2824 H         327.5091  -88.7070    1.3540 H       470        0    0.0000
   2825 H         327.2776  -89.9024   -0.8116 H       470        0    0.0000
   2826 H         329.0256  -90.0415   -0.9647 H       470        0    0.0000
   2827 C         328.1660  -91.3665    0.5437 C.3     471        0    0.0000
   2828 C         327.6493  -92.5193   -0.3241 C.3     471        0    0.0000
   2829 H         329.1750  -91.5940    0.9094 H       471        0    0.0000
   2830 H         327.5293  -91.2475    1.4291 H       471        0    0.0000
   2831 H         326.6073  -92.3345   -0.6136 H       471        0    0.0000
   2832 H         328.2286  -92.5793   -1.2538 H       471        0    0.0000
   2833 C         327.7316  -93.9006    0.4126 C.3     472        0    0.0000
   2834 C         326.9783  -95.0047   -0.3374 C.3     472        0    0.0000
   2835 H         328.7869  -94.1772    0.5285 H       472        0    0.0000
   2836 H         327.3228  -93.7867    1.4243 H       472        0    0.0000
   2837 H         325.9107  -94.7586   -0.3961 H       472        0    0.0000
   2838 H         327.3427  -95.0743   -1.3698 H       472        0    0.0000
   2839 C         327.1370  -96.4046    0.3499 C.3     473        0    0.0000
   2840 C         326.2520  -97.4742   -0.2993 C.3     473        0    0.0000
   2841 H         328.1906  -96.7063    0.2987 H       473        0    0.0000
   2842 H         326.8889  -96.3063    1.4140 H       473        0    0.0000
   2843 H         325.1971  -97.1794   -0.2352 H       473        0    0.0000
   2844 H         326.4900  -97.5624   -1.3666 H       473        0    0.0000
   2845 C         326.4258  -98.8788    0.3748 C.3     474        0    0.0000
   2846 C         325.4838  -99.9301   -0.2219 C.3     474        0    0.0000
   2847 H         327.4687  -99.1995    0.2598 H       474        0    0.0000
   2848 H         326.2440  -98.7788    1.4521 H       474        0    0.0000
   2849 H         324.4409  -99.6106   -0.1046 H       474        0    0.0000
   2850 H         325.6639 -100.0282   -1.2996 H       474        0    0.0000
   2851 C         325.6602 -101.3356    0.4498 C.3     475        0    0.0000
   2852 C         324.6811 -102.3736   -0.1094 C.3     475        0    0.0000
   2853 H         326.6931 -101.6728    0.2981 H       475        0    0.0000
   2854 H         325.5191 -101.2302    1.5326 H       475        0    0.0000
   2855 H         323.6508 -102.0098   -0.0116 H       475        0    0.0000
   2856 H         324.8623 -102.5227   -1.1810 H       475        0    0.0000
   2857 C         324.8001 -103.7560    0.6202 C.3     476        0    0.0000
   2858 C         323.8186 -104.7931    0.0635 C.3     476        0    0.0000
   2859 H         325.8299 -104.1211    0.5204 H       476        0    0.0000
   2860 H         324.6215 -103.6066    1.6923 H       476        0    0.0000
   2861 H         322.8489 -104.3221   -0.1399 H       476        0    0.0000
   2862 H         324.1863 -105.1831   -0.8938 H       476        0    0.0000
   2863 C         323.6007 -105.9935    1.0479 C.3     477        0    0.0000
   2864 C         322.6680 -107.0608    0.4650 C.3     477        0    0.0000
   2865 H         324.5757 -106.4360    1.2872 H       477        0    0.0000
   2866 H         323.1899 -105.6085    1.9895 H       477        0    0.0000
   2867 H         323.2087 -108.0078    0.3447 H       477        0    0.0000
   2868 H         321.8405 -107.2564    1.1582 H       477        0    0.0000
   2869 C         322.0750 -106.6377   -0.9231 C.3     478        0    0.0000
   2870 C         321.1241 -107.6948   -1.4951 C.3     478        0    0.0000
   2871 H         321.5488 -105.6821   -0.8064 H       478        0    0.0000
   2872 H         322.9022 -106.4585   -1.6212 H       478        0    0.0000
   2873 H         320.1235 -107.2663   -1.6318 H       478        0    0.0000
   2874 H         321.4685 -108.0133   -2.4869 H       478        0    0.0000
   2875 C         321.0119 -108.9556   -0.5703 C.3     479        0    0.0000
   2876 C         320.0601 -110.0123   -1.1417 C.3     479        0    0.0000
   2877 H         322.0124 -109.3847   -0.4344 H       479        0    0.0000
   2878 H         320.6684 -108.6370    0.4217 H       479        0    0.0000
   2879 H         319.0649 -109.5775   -1.2970 H       479        0    0.0000
   2880 H         320.4150 -110.3460   -2.1247 H       479        0    0.0000
   2881 C         319.9253 -111.2604   -0.2028 C.3     480        0    0.0000
   2882 C         318.9958 -112.3295   -0.7876 C.3     480        0    0.0000
   2883 H         320.9231 -111.6827   -0.0306 H       480        0    0.0000
   2884 H         319.5505 -110.9294    0.7737 H       480        0    0.0000
   2885 H         318.0868 -111.8611   -1.1850 H       480        0    0.0000
   2886 H         319.4851 -112.8330   -1.6306 H       480        0    0.0000
   2887 C         318.5860 -113.4064    0.2754 C.3     481        0    0.0000
   2888 C         317.6224 -114.4511   -0.2980 C.3     481        0    0.0000
   2889 H         319.4932 -113.8968    0.6498 H       481        0    0.0000
   2890 H         318.1252 -112.8998    1.1324 H       481        0    0.0000
   2891 H         318.1483 -115.0954   -1.0134 H       481        0    0.0000
   2892 H         317.2554 -115.1043    0.5034 H       481        0    0.0000
   2893 C         316.3939 -113.7948   -1.0173 C.3     482        0    0.0000
   2894 C         315.3994 -114.8387   -1.5373 C.3     482        0    0.0000
   2895 H         315.8940 -113.1161   -0.3151 H       482        0    0.0000
   2896 H         316.7587 -113.1768   -1.8471 H       482        0    0.0000
   2897 H         314.4323 -114.7209   -1.0329 H       482        0    0.0000
   2898 H         315.2172 -114.6842   -2.6080 H       482        0    0.0000
   2899 C         315.9084 -116.3051   -1.3179 C.3     483        0    0.0000
   2900 C         314.8095 -117.3445   -1.5651 C.3     483        0    0.0000
   2901 H         316.7574 -116.4887   -1.9879 H       483        0    0.0000
   2902 H         316.2898 -116.3975   -0.2934 H       483        0    0.0000
   2903 H         313.8444 -116.9636   -1.2088 H       483        0    0.0000
   2904 H         314.6986 -117.5259   -2.6414 H       483        0    0.0000
   2905 C         315.1094 -118.7075   -0.8513 C.3     484        0    0.0000
   2906 C         313.9959 -119.7370   -1.0734 C.3     484        0    0.0000
   2907 H         316.0639 -119.0994   -1.2241 H       484        0    0.0000
   2908 H         315.2423 -118.5229    0.2219 H       484        0    0.0000
   2909 H         314.4106 -120.6490   -1.5203 H       484        0    0.0000
   2910 H         313.5563 -120.0291   -0.1117 H       484        0    0.0000
   2911 C         312.8586 -119.1906   -2.0037 C.3     485        0    0.0000
   2912 C         311.7211 -120.2015   -2.1857 C.3     485        0    0.0000
   2913 H         312.4687 -118.2587   -1.5756 H       485        0    0.0000
   2914 H         313.2920 -118.9326   -2.9779 H       485        0    0.0000
   2915 H         310.7848 -119.7897   -1.7892 H       485        0    0.0000
   2916 H         311.5544 -120.3920   -3.2531 H       485        0    0.0000
   2917 C         312.0171 -121.5642   -1.4694 C.3     486        0    0.0000
   2918 C         310.9208 -122.6044   -1.7242 C.3     486        0    0.0000
   2919 H         312.9850 -121.9444   -1.8188 H       486        0    0.0000
   2920 H         312.1202 -121.3824   -0.3924 H       486        0    0.0000
   2921 H         310.3742 -122.3577   -2.6428 H       486        0    0.0000
   2922 H         311.3695 -123.5933   -1.8805 H       486        0    0.0000
   2923 C         309.9001 -122.6946   -0.5378 C.3     487        0    0.0000
   2924 C         308.7815 -123.7065   -0.8095 C.3     487        0    0.0000
   2925 H         310.4425 -122.9698    0.3753 H       487        0    0.0000
   2926 H         309.4728 -121.6995   -0.3625 H       487        0    0.0000
   2927 H         308.7426 -124.4498   -0.0036 H       487        0    0.0000
   2928 H         307.8089 -123.1990   -0.8171 H       487        0    0.0000
   2929 C         308.9733 -124.4516   -2.1754 C.3     488        0    0.0000
   2930 C         307.8589 -125.4690   -2.4435 C.3     488        0    0.0000
   2931 H         309.0064 -123.7086   -2.9819 H       488        0    0.0000
   2932 H         309.9484 -124.9543   -2.1700 H       488        0    0.0000
   2933 H         306.9227 -124.9480   -2.6796 H       488        0    0.0000
   2934 H         308.1096 -126.0792   -3.3200 H       488        0    0.0000
   2935 C         307.6141 -126.4183   -1.2202 C.3     489        0    0.0000
   2936 C         306.4601 -127.3966   -1.4659 C.3     489        0    0.0000
   2937 H         308.5382 -126.9715   -1.0115 H       489        0    0.0000
   2938 H         307.4062 -125.8063   -0.3337 H       489        0    0.0000
   2939 H         306.7484 -128.1358   -2.2235 H       489        0    0.0000
   2940 H         306.2392 -127.9557   -0.5482 H       489        0    0.0000
   2941 C         305.1553 -126.6689   -1.9407 C.3     490        0    0.0000
   2942 C         304.0267 -127.6535   -2.2656 C.3     490        0    0.0000
   2943 H         304.8332 -125.9729   -1.1562 H       490        0    0.0000
   2944 H         305.3905 -126.0616   -2.8235 H       490        0    0.0000
   2945 H         303.1171 -127.3772   -1.7180 H       490        0    0.0000
   2946 H         303.7792 -127.6031   -3.3332 H       490        0    0.0000
   2947 C         304.4049 -129.1312   -1.9039 C.3     491        0    0.0000
   2948 C         303.2595 -130.1097   -2.1864 C.3     491        0    0.0000
   2949 H         305.2952 -129.4187   -2.4768 H       491        0    0.0000
   2950 H         304.6845 -129.1753   -0.8440 H       491        0    0.0000
   2951 H         302.6949 -129.7834   -3.0686 H       491        0    0.0000
   2952 H         303.6624 -131.1030   -2.4199 H       491        0    0.0000
   2953 C         302.2738 -130.2365   -0.9741 C.3     492        0    0.0000
   2954 C         301.0195 -131.0434   -1.3271 C.3     492        0    0.0000
   2955 H         302.8019 -130.7093   -0.1368 H       492        0    0.0000
   2956 H         301.9920 -129.2300   -0.6407 H       492        0    0.0000
   2957 H         300.3594 -131.1140   -0.4538 H       492        0    0.0000
   2958 H         300.4502 -130.5297   -2.1117 H       492        0    0.0000
   2959 C         301.3637 -132.4917   -1.8186 C.3     493        0    0.0000
   2960 C         300.1276 -133.2415   -2.3274 C.3     493        0    0.0000
   2961 H         302.1171 -132.4257   -2.6133 H       493        0    0.0000
   2962 H         301.8256 -133.0453   -0.9918 H       493        0    0.0000
   2963 H         299.6101 -132.6421   -3.0866 H       493        0    0.0000
   2964 H         300.4293 -134.1763   -2.8158 H       493        0    0.0000
   2965 C         299.1195 -133.5763   -1.1744 C.3     494        0    0.0000
   2966 C         297.7534 -134.0209   -1.7082 C.3     494        0    0.0000
   2967 H         299.5516 -134.3637   -0.5445 H       494        0    0.0000
   2968 H         299.0044 -132.6907   -0.5372 H       494        0    0.0000
   2969 H         296.9515 -133.5822   -1.1015 H       494        0    0.0000
   2970 H         297.6115 -133.6525   -2.7318 H       494        0    0.0000
   2971 C         297.5934 -135.5804   -1.7058 C.3     495        0    0.0000
   2972 C         296.2557 -136.0280   -2.3052 C.3     495        0    0.0000
   2973 H         298.4246 -136.0219   -2.2693 H       495        0    0.0000
   2974 H         297.6837 -135.9434   -0.6745 H       495        0    0.0000
   2975 H         295.8011 -135.2034   -2.8683 H       495        0    0.0000
   2976 H         296.4180 -136.8451   -3.0190 H       495        0    0.0000
   2977 C         295.2443 -136.5087   -1.2082 C.3     496        0    0.0000
   2978 C         293.9279 -137.0105   -1.8118 C.3     496        0    0.0000
   2979 H         295.7149 -137.3046   -0.6178 H       496        0    0.0000
   2980 H         295.0494 -135.6781   -0.5186 H       496        0    0.0000
   2981 H         293.4491 -136.2095   -2.3887 H       496        0    0.0000
   2982 H         294.1244 -137.8302   -2.5140 H       496        0    0.0000
   2983 C         292.9254 -137.5129   -0.7163 C.3     497        0    0.0000
   2984 C         291.7568 -138.3023   -1.3165 C.3     497        0    0.0000
   2985 H         293.4708 -138.1366    0.0027 H       497        0    0.0000
   2986 H         292.5474 -136.6468   -0.1590 H       497        0    0.0000
   2987 H         291.1341 -137.6421   -1.9331 H       497        0    0.0000
   2988 H         292.1359 -139.0887   -1.9809 H       497        0    0.0000
   2989 C         290.8572 -138.9617   -0.2149 C.3     498        0    0.0000
   2990 C         289.5834 -139.5816   -0.7997 C.3     498        0    0.0000
   2991 H         291.4429 -139.7281    0.3077 H       498        0    0.0000
   2992 H         290.5969 -138.2007    0.5312 H       498        0    0.0000
   2993 H         289.0542 -138.8437   -1.4152 H       498        0    0.0000
   2994 H         289.8415 -140.4173   -1.4620 H       498        0    0.0000
   2995 C         288.6103 -140.1015    0.3140 C.3     499        0    0.0000
   2996 C         287.4320 -140.8912   -0.2665 C.3     499        0    0.0000
   2997 H         289.1762 -140.7298    1.0129 H       499        0    0.0000
   2998 H         288.2411 -139.2436    0.8896 H       499        0    0.0000
   2999 H         286.7454 -140.2131   -0.7884 H       499        0    0.0000
   3000 H         287.7922 -141.6103   -1.0126 H       499        0    0.0000
   3001 C         286.6342 -141.6661    0.8383 C.3     500        0    0.0000
   3002 C         285.2465 -142.1016    0.3549 C.3     500        0    0.0000
   3003 H         287.2174 -142.5427    1.1463 H       500        0    0.0000
   3004 H         286.5400 -141.0237    1.7226 H       500        0    0.0000
   3005 H         284.7390 -141.2624   -0.1369 H       500        0    0.0000
   3006 H         285.3417 -142.8958   -0.3959 H       500        0    0.0000
   3007 C         284.3447 -142.6204    1.5275 C.3     501        0    0.0000
   3008 C         283.0805 -143.3233    1.0209 C.3     501        0    0.0000
   3009 H         284.9331 -143.3065    2.1492 H       501        0    0.0000
   3010 H         284.0724 -141.7712    2.1665 H       501        0    0.0000
   3011 H         283.2455 -143.7099    0.0076 H       501        0    0.0000
   3012 H         282.8517 -144.1889    1.6549 H       501        0    0.0000
   3013 C         281.8372 -142.3687    1.0013 C.3     502        0    0.0000
   3014 C         280.6441 -142.9839    0.2617 C.3     502        0    0.0000
   3015 H         281.5573 -142.1314    2.0351 H       502        0    0.0000
   3016 H         282.1257 -141.4220    0.5279 H       502        0    0.0000
   3017 H         280.0996 -142.2055   -0.2871 H       502        0    0.0000
   3018 H         280.9962 -143.7074   -0.4840 H       502        0    0.0000
   3019 C         279.6494 -143.7053    1.2353 C.3     503        0    0.0000
   3020 C         278.5202 -144.4214    0.4864 C.3     503        0    0.0000
   3021 H         280.2106 -144.4236    1.8458 H       503        0    0.0000
   3022 H         279.2310 -142.9635    1.9267 H       503        0    0.0000
   3023 H         277.7562 -143.6977    0.1766 H       503        0    0.0000
   3024 H         278.9093 -144.8808   -0.4308 H       503        0    0.0000
   3025 C         277.8399 -145.5323    1.3585 C.3     504        0    0.0000
   3026 C         276.3542 -145.2482    1.6056 C.3     504        0    0.0000
   3027 H         277.9592 -146.4997    0.8549 H       504        0    0.0000
   3028 H         278.3727 -145.6070    2.3146 H       504        0    0.0000
   3029 H         276.2082 -144.1864    1.8399 H       504        0    0.0000
   3030 H         275.7758 -145.4525    0.6961 H       504        0    0.0000
   3031 C         275.7718 -146.1092    2.7789 C.3     505        0    0.0000
   3032 C         274.2433 -146.0272    2.8564 C.3     505        0    0.0000
   3033 H         276.0861 -147.1514    2.6425 H       505        0    0.0000
   3034 H         276.2152 -145.7673    3.7223 H       505        0    0.0000
   3035 H         273.8466 -145.5409    1.9566 H       505        0    0.0000
   3036 H         273.8134 -147.0361    2.8849 H       505        0    0.0000
   3037 C         273.7541 -145.2338    4.1169 C.3     506        0    0.0000
   3038 C         272.2383 -145.0069    4.1082 C.3     506        0    0.0000
   3039 H         274.0465 -145.7867    5.0182 H       506        0    0.0000
   3040 H         274.2784 -144.2708    4.1540 H       506        0    0.0000
   3041 H         272.0119 -143.9683    4.3795 H       506        0    0.0000
   3042 H         271.8405 -145.1625    3.0977 H       506        0    0.0000
   3043 C         271.4888 -145.9629    5.0991 C.3     507        0    0.0000
   3044 C         269.9950 -145.6362    5.2033 C.3     507        0    0.0000
   3045 H         271.6249 -146.9982    4.7626 H       507        0    0.0000
   3046 H         271.9601 -145.8882    6.0870 H       507        0    0.0000
   3047 H         269.6995 -144.9633    4.3888 H       507        0    0.0000
   3048 H         269.4009 -146.5511    5.0873 H       507        0    0.0000
   3049 C         269.6276 -144.9652    6.5716 C.3     508        0    0.0000
   3050 C         268.1259 -145.0375    6.8693 C.3     508        0    0.0000
   3051 H         270.1938 -145.4591    7.3709 H       508        0    0.0000
   3052 H         269.9573 -143.9190    6.5521 H       508        0    0.0000
   3053 H         267.5590 -144.5553    6.0633 H       508        0    0.0000
   3054 H         267.7989 -146.0842    6.9020 H       508        0    0.0000
   3055 C         267.7559 -144.3499    8.2287 C.3     509        0    0.0000
   3056 C         266.2854 -144.5612    8.6052 C.3     509        0    0.0000
   3057 H         268.4070 -144.7498    9.0159 H       509        0    0.0000
   3058 H         267.9746 -143.2775    8.1535 H       509        0    0.0000
   3059 H         265.6349 -144.1952    7.8012 H       509        0    0.0000
   3060 H         266.0758 -145.6322    8.7170 H       509        0    0.0000
   3061 C         265.9022 -143.8296    9.9376 C.3     510        0    0.0000
   3062 C         264.4286 -144.0311   10.3079 C.3     510        0    0.0000
   3063 H         266.5468 -144.2019   10.7435 H       510        0    0.0000
   3064 H         266.1199 -142.7598    9.8289 H       510        0    0.0000
   3065 H         263.7863 -143.7354    9.4693 H       510        0    0.0000
   3066 H         264.2303 -145.0933   10.4974 H       510        0    0.0000
   3067 C         264.0164 -143.2061   11.5756 C.3     511        0    0.0000
   3068 C         262.5617 -143.4599   11.9860 C.3     511        0    0.0000
   3069 H         264.6909 -143.4655   12.4010 H       511        0    0.0000
   3070 H         264.1681 -142.1396   11.3681 H       511        0    0.0000
   3071 H         261.8903 -143.2404   11.1466 H       511        0    0.0000
   3072 H         262.4202 -144.5191   12.2340 H       511        0    0.0000
   3073 C         262.1316 -142.5907   13.2177 C.3     512        0    0.0000
   3074 C         260.6644 -142.8123   13.6010 C.3     512        0    0.0000
   3075 H         262.7829 -142.8335   14.0664 H       512        0    0.0000
   3076 H         262.3031 -141.5332   12.9814 H       512        0    0.0000
   3077 H         260.0232 -142.6957   12.7185 H       512        0    0.0000
   3078 H         260.5206 -143.8385   13.9615 H       512        0    0.0000
   3079 C         260.1830 -141.8150   14.7106 C.3     513        0    0.0000
   3080 C         258.7749 -142.1457   15.2175 C.3     513        0    0.0000
   3081 H         260.8977 -141.8396   15.5424 H       513        0    0.0000
   3082 H         260.2069 -140.7961   14.3046 H       513        0    0.0000
   3083 H         258.0661 -142.1548   14.3803 H       513        0    0.0000
   3084 H         258.7591 -143.1518   15.6545 H       513        0    0.0000
   3085 C         258.2743 -141.1201   16.2923 C.3     514        0    0.0000
   3086 C         256.8372 -141.4053   16.7423 C.3     514        0    0.0000
   3087 H         258.9519 -141.1524   17.1545 H       514        0    0.0000
   3088 H         258.3439 -140.1080   15.8747 H       514        0    0.0000
   3089 H         256.2008 -141.5973   15.8696 H       514        0    0.0000
   3090 H         256.8091 -142.3125   17.3585 H       514        0    0.0000
   3091 C         256.2249 -140.2181   17.5627 C.3     515        0    0.0000
   3092 C         254.9664 -140.6325   18.3329 C.3     515        0    0.0000
   3093 H         256.9843 -139.8402   18.2585 H       515        0    0.0000
   3094 H         255.9913 -139.3962   16.8747 H       515        0    0.0000
   3095 H         254.2107 -141.0199   17.6383 H       515        0    0.0000
   3096 H         255.2022 -141.4475   19.0284 H       515        0    0.0000
   3097 C         254.3458 -139.4417   19.1419 C.3     516        0    0.0000
   3098 C         252.9693 -139.7873   19.7204 C.3     516        0    0.0000
   3099 H         255.0349 -139.1659   19.9497 H       516        0    0.0000
   3100 H         254.2681 -138.5685   18.4822 H       516        0    0.0000
   3101 H         252.4169 -140.4267   19.0206 H       516        0    0.0000
   3102 H         253.0845 -140.3616   20.6480 H       516        0    0.0000
   3103 C         252.1129 -138.5090   20.0206 C.3     517        0    0.0000
   3104 C         251.1309 -138.7262   21.1771 C.3     517        0    0.0000
   3105 H         252.7892 -137.6769   20.2525 H       517        0    0.0000
   3106 H         251.5672 -138.2275   19.1115 H       517        0    0.0000
   3107 H         250.4027 -139.5026   20.9115 H       517        0    0.0000
   3108 H         251.6674 -139.0874   22.0633 H       517        0    0.0000
   3109 C         250.3576 -137.4157   21.5538 C.3     518        0    0.0000
   3110 C         249.0583 -137.7059   22.3133 C.3     518        0    0.0000
   3111 H         251.0140 -136.7798   22.1607 H       518        0    0.0000
   3112 H         250.1395 -136.8572   20.6351 H       518        0    0.0000
   3113 H         248.2308 -137.1340   21.8754 H       518        0    0.0000
   3114 H         248.7946 -138.7663   22.2160 H       518        0    0.0000
   3115 C         249.1681 -137.3501   23.8361 C.3     519        0    0.0000
   3116 C         247.7988 -137.3099   24.5234 C.3     519        0    0.0000
   3117 H         249.8136 -138.0895   24.3263 H       519        0    0.0000
   3118 H         249.6684 -136.3790   23.9371 H       519        0    0.0000
   3119 H         247.1112 -138.0103   24.0333 H       519        0    0.0000
   3120 H         247.8917 -137.6375   25.5663 H       519        0    0.0000
   3121 C         247.1634 -135.8771   24.4985 C.3     520        0    0.0000
   3122 C         245.6896 -135.8879   24.9192 C.3     520        0    0.0000
   3123 H         247.7399 -135.2230   25.1643 H       520        0    0.0000
   3124 H         247.2628 -135.4637   23.4872 H       520        0    0.0000
   3125 H         245.1831 -136.7627   24.4929 H       520        0    0.0000
   3126 H         245.6104 -135.9783   26.0097 H       520        0    0.0000
   3127 C         244.9321 -134.5934   24.4632 C.3     521        0    0.0000
   3128 C         243.6264 -134.3814   25.2373 C.3     521        0    0.0000
   3129 H         245.5946 -133.7296   24.5993 H       521        0    0.0000
   3130 H         244.7248 -134.6652   23.3883 H       521        0    0.0000
   3131 H         242.9832 -133.6714   24.7027 H       521        0    0.0000
   3132 H         243.0695 -135.3245   25.3010 H       521        0    0.0000
   3133 C         243.8765 -133.8432   26.6882 C.3     522        0    0.0000
   3134 C         242.5691 -133.5793   27.4432 C.3     522        0    0.0000
   3135 H         244.4865 -134.5724   27.2356 H       522        0    0.0000
   3136 H         244.4678 -132.9211   26.6262 H       522        0    0.0000
   3137 H         242.6051 -132.5943   27.9250 H       522        0    0.0000
   3138 H         241.7270 -133.5557   26.7405 H       522        0    0.0000
   3139 C         242.2846 -134.6663   28.5364 C.3     523        0    0.0000
   3140 C         240.7865 -134.9421   28.7053 C.3     523        0    0.0000
   3141 H         242.8085 -135.5901   28.2612 H       523        0    0.0000
   3142 H         242.7151 -134.3316   29.4883 H       523        0    0.0000
   3143 H         240.2472 -134.6627   27.7917 H       523        0    0.0000
   3144 H         240.6161 -136.0153   28.8559 H       523        0    0.0000
   3145 C         240.1707 -134.1581   29.9151 C.3     524        0    0.0000
   3146 C         238.9459 -133.3313   29.5087 C.3     524        0    0.0000
   3147 H         239.8972 -134.8754   30.6989 H       524        0    0.0000
   3148 H         240.9414 -133.5041   30.3417 H       524        0    0.0000
   3149 H         238.7533 -132.5519   30.2563 H       524        0    0.0000
   3150 H         239.1378 -132.8165   28.5592 H       524        0    0.0000
   3151 C         237.6587 -134.2126   29.3545 C.3     525        0    0.0000
   3152 C         236.4682 -133.4125   28.8146 C.3     525        0    0.0000
   3153 H         237.8829 -135.0518   28.6843 H       525        0    0.0000
   3154 H         237.4085 -134.6470   30.3303 H       525        0    0.0000
   3155 H         236.8130 -132.4544   28.4064 H       525        0    0.0000
   3156 H         235.9944 -133.9552   27.9872 H       525        0    0.0000
   3157 C         235.3906 -133.1331   29.9183 C.3     526        0    0.0000
   3158 C         234.4078 -132.0320   29.5049 C.3     526        0    0.0000
   3159 H         234.8476 -134.0635   30.1259 H       526        0    0.0000
   3160 H         235.9011 -132.8521   30.8478 H       526        0    0.0000
   3161 H         234.8416 -131.0450   29.7079 H       526        0    0.0000
   3162 H         234.2231 -132.0789   28.4246 H       526        0    0.0000
   3163 C         233.0372 -132.1460   30.2573 C.3     527        0    0.0000
   3164 C         232.1448 -130.9213   30.0274 C.3     527        0    0.0000
   3165 H         232.5232 -133.0546   29.9202 H       527        0    0.0000
   3166 H         233.2319 -132.2736   31.3294 H       527        0    0.0000
   3167 H         232.5336 -130.0620   30.5878 H       527        0    0.0000
   3168 H         232.1594 -130.6390   28.9674 H       527        0    0.0000
   3169 C         230.6605 -131.1779   30.4617 C.3     528        0    0.0000
   3170 C         229.7373 -130.0118   30.0919 C.3     528        0    0.0000
   3171 H         230.3080 -132.1020   29.9869 H       528        0    0.0000
   3172 H         230.6337 -131.3501   31.5448 H       528        0    0.0000
   3173 H         229.8455 -129.2001   30.8220 H       528        0    0.0000
   3174 H         230.0248 -129.5989   29.1170 H       528        0    0.0000
   3175 C         228.2309 -130.4419   30.0341 C.3     529        0    0.0000
   3176 C         227.2825 -129.2379   30.0395 C.3     529        0    0.0000
   3177 H         228.0695 -131.0439   29.1312 H       529        0    0.0000
   3178 H         228.0162 -131.0937   30.8900 H       529        0    0.0000
   3179 H         227.2161 -128.8159   31.0499 H       529        0    0.0000
   3180 H         227.6774 -128.4450   29.3922 H       529        0    0.0000
   3181 C         225.8405 -129.6153   29.5539 C.3     530        0    0.0000
   3182 C         224.8807 -128.4214   29.6011 C.3     530        0    0.0000
   3183 H         225.9032 -130.0075   28.5313 H       530        0    0.0000
   3184 H         225.4583 -130.4303   30.1810 H       530        0    0.0000
   3185 H         225.4341 -127.5027   29.8317 H       530        0    0.0000
   3186 H         224.4177 -128.2719   28.6178 H       530        0    0.0000
   3187 C         223.7488 -128.6109   30.6689 C.3     531        0    0.0000
   3188 C         222.5857 -127.6344   30.4621 C.3     531        0    0.0000
   3189 H         223.3853 -129.6448   30.6192 H       531        0    0.0000
   3190 H         224.1797 -128.4762   31.6688 H       531        0    0.0000
   3191 H         222.8068 -126.6773   30.9505 H       531        0    0.0000
   3192 H         222.4592 -127.4210   29.3934 H       531        0    0.0000
   3193 C         221.2345 -128.1910   31.0296 C.3     532        0    0.0000
   3194 C         220.0318 -127.3423   30.6029 C.3     532        0    0.0000
   3195 H         221.1060 -129.2251   30.6863 H       532        0    0.0000
   3196 H         221.2993 -128.2282   32.1241 H       532        0    0.0000
   3197 H         220.0365 -126.3861   31.1406 H       532        0    0.0000
   3198 H         220.1002 -127.1033   29.5344 H       532        0    0.0000
   3199 C         218.6680 -128.0668   30.8723 C.3     533        0    0.0000
   3200 C         217.4978 -127.3893   30.1505 C.3     533        0    0.0000
   3201 H         218.7534 -129.1123   30.5511 H       533        0    0.0000
   3202 H         218.4840 -128.0835   31.9537 H       533        0    0.0000
   3203 H         217.8756 -126.7183   29.3692 H       533        0    0.0000
   3204 H         216.8795 -128.1427   29.6469 H       533        0    0.0000
   3205 C         216.5926 -126.5653   31.1299 C.3     534        0    0.0000
   3206 C         215.6883 -125.5738   30.3896 C.3     534        0    0.0000
   3207 H         215.9838 -127.2621   31.7193 H       534        0    0.0000
   3208 H         217.2354 -126.0304   31.8399 H       534        0    0.0000
   3209 H         216.2868 -124.7478   29.9859 H       534        0    0.0000
   3210 H         215.2125 -126.0663   29.5325 H       534        0    0.0000
   3211 C         214.5711 -124.9823   31.3166 C.3     535        0    0.0000
   3212 C         213.4487 -124.3106   30.5177 C.3     535        0    0.0000
   3213 H         214.1609 -125.7899   31.9355 H       535        0    0.0000
   3214 H         215.0279 -124.2596   32.0040 H       535        0    0.0000
   3215 H         213.3846 -124.7518   29.5153 H       535        0    0.0000
   3216 H         212.4816 -124.4904   31.0035 H       535        0    0.0000
   3217 C         213.6634 -122.7642   30.3764 C.3     536        0    0.0000
   3218 C         212.9122 -122.1809   29.1746 C.3     536        0    0.0000
   3219 H         213.3318 -122.2753   31.3008 H       536        0    0.0000
   3220 H         214.7378 -122.5636   30.2819 H       536        0    0.0000
   3221 H         213.1988 -121.1326   29.0245 H       536        0    0.0000
   3222 H         213.1915 -122.7179   28.2596 H       536        0    0.0000
   3223 C         211.3565 -122.2591   29.3514 C.3     537        0    0.0000
   3224 C         210.6336 -122.5204   28.0254 C.3     537        0    0.0000
   3225 H         211.1219 -123.0535   30.0707 H       537        0    0.0000
   3226 H         211.0032 -121.3193   29.7936 H       537        0    0.0000
   3227 H         210.6738 -121.6254   27.3923 H       537        0    0.0000
   3228 H         211.1404 -123.3208   27.4721 H       537        0    0.0000
   3229 C         209.1334 -122.9234   28.2360 C.3     538        0    0.0000
   3230 C         208.2729 -122.6236   27.0036 C.3     538        0    0.0000
   3231 H         209.0849 -123.9924   28.4777 H       538        0    0.0000
   3232 H         208.7418 -122.3852   29.1081 H       538        0    0.0000
   3233 H         208.8186 -122.8901   26.0900 H       538        0    0.0000
   3234 H         207.3654 -123.2398   27.0196 H       538        0    0.0000
   3235 C         207.8575 -121.1143   26.9220 C.3     539        0    0.0000
   3236 C         206.6146 -120.9002   26.0510 C.3     539        0    0.0000
   3237 H         207.6735 -120.7427   27.9377 H       539        0    0.0000
   3238 H         208.7004 -120.5365   26.5231 H       539        0    0.0000
   3239 H         206.9009 -120.8490   24.9932 H       539        0    0.0000
   3240 H         205.9330 -121.7538   26.1519 H       539        0    0.0000
   3241 C         205.8425 -119.5895   26.4296 C.3     540        0    0.0000
   3242 C         204.7418 -119.2511   25.4181 C.3     540        0    0.0000
   3243 H         205.4095 -119.7106   27.4302 H       540        0    0.0000
   3244 H         206.5604 -118.7625   26.4950 H       540        0    0.0000
   3245 H         204.6535 -118.1632   25.3082 H       540        0    0.0000
   3246 H         205.0046 -119.6474   24.4295 H       540        0    0.0000
   3247 C         203.3480 -119.8310   25.8407 C.3     541        0    0.0000
   3248 C         202.4907 -120.2216   24.6318 C.3     541        0    0.0000
   3249 H         203.5089 -120.7039   26.4854 H       541        0    0.0000
   3250 H         202.8233 -119.0832   26.4481 H       541        0    0.0000
   3251 H         203.1285 -120.3770   23.7528 H       541        0    0.0000
   3252 H         201.9814 -121.1742   24.8238 H       541        0    0.0000
   3253 C         201.4152 -119.1336   24.2897 C.3     542        0    0.0000
   3254 C         200.9722 -119.1955   22.8238 C.3     542        0    0.0000
   3255 H         200.5502 -119.2715   24.9502 H       542        0    0.0000
   3256 H         201.8297 -118.1434   24.5159 H       542        0    0.0000
   3257 H         201.8372 -119.3885   22.1772 H       542        0    0.0000
   3258 H         200.2761 -120.0304   22.6761 H       542        0    0.0000
   3259 C         200.2777 -117.8700   22.3565 C.3     543        0    0.0000
   3260 C         198.9111 -118.1263   21.7117 C.3     543        0    0.0000
   3261 H         200.1665 -117.2050   23.2219 H       543        0    0.0000
   3262 H         200.9380 -117.3560   21.6470 H       543        0    0.0000
   3263 H         199.0375 -118.3873   20.6537 H       543        0    0.0000
   3264 H         198.4236 -118.9839   22.1917 H       543        0    0.0000
   3265 C         197.9626 -116.8826   21.8156 C.3     544        0    0.0000
   3266 C         196.9993 -116.7859   20.6274 C.3     544        0    0.0000
   3267 H         197.3974 -116.9463   22.7537 H       544        0    0.0000
   3268 H         198.5753 -115.9748   21.8780 H       544        0    0.0000
   3269 H         196.9256 -115.7457   20.2866 H       544        0    0.0000
   3270 H         197.3858 -117.3678   19.7815 H       544        0    0.0000
   3271 C         195.5632 -117.3041   20.9830 C.3     545        0    0.0000
   3272 C         194.6586 -117.4008   19.7496 C.3     545        0    0.0000
   3273 H         195.6507 -118.2866   21.4633 H       545        0    0.0000
   3274 H         195.1174 -116.6295   21.7245 H       545        0    0.0000
   3275 H         195.2682 -117.4436   18.8385 H       545        0    0.0000
   3276 H         194.0757 -118.3297   19.7825 H       545        0    0.0000
   3277 C         193.6712 -116.1882   19.6405 C.3     546        0    0.0000
   3278 C         193.2239 -115.9314   18.1972 C.3     546        0    0.0000
   3279 H         192.7984 -116.3847   20.2755 H       546        0    0.0000
   3280 H         194.1617 -115.2950   20.0468 H       546        0    0.0000
   3281 H         194.0996 -115.7959   17.5504 H       546        0    0.0000
   3282 H         192.6792 -116.8021   17.8116 H       546        0    0.0000
   3283 C         192.3056 -114.6666   18.0759 C.3     547        0    0.0000
   3284 C         191.0850 -114.9185   17.1839 C.3     547        0    0.0000
   3285 H         191.9821 -114.3669   19.0804 H       547        0    0.0000
   3286 H         192.8994 -113.8357   17.6751 H       547        0    0.0000
   3287 H         191.3846 -115.4672   16.2825 H       547        0    0.0000
   3288 H         190.3584 -115.5499   17.7102 H       547        0    0.0000
   3289 C         190.3788 -113.5867   16.7535 C.3     548        0    0.0000
   3290 C         189.4436 -113.7860   15.5557 C.3     548        0    0.0000
   3291 H         189.8159 -113.1926   17.6087 H       548        0    0.0000
   3292 H         191.1467 -112.8416   16.5113 H       548        0    0.0000
   3293 H         189.5585 -112.9568   14.8467 H       548        0    0.0000
   3294 H         189.7140 -114.7019   15.0157 H       548        0    0.0000
   3295 C         187.9389 -113.8784   15.9856 C.3     549        0    0.0000
   3296 C         186.9948 -113.9619   14.7812 C.3     549        0    0.0000
   3297 H         187.8081 -114.7581   16.6279 H       549        0    0.0000
   3298 H         187.6916 -113.0021   16.5974 H       549        0    0.0000
   3299 H         187.5452 -114.3001   13.8945 H       549        0    0.0000
   3300 H         186.2111 -114.7064   14.9684 H       549        0    0.0000
   3301 C         186.3174 -112.5850   14.4607 C.3     550        0    0.0000
   3302 C         185.6092 -112.5884   13.1015 C.3     550        0    0.0000
   3303 H         185.6011 -112.3494   15.2575 H       550        0    0.0000
   3304 H         187.0836 -111.8001   14.4837 H       550        0    0.0000
   3305 H         186.2650 -112.1579   12.3345 H       550        0    0.0000
   3306 H         185.3957 -113.6188   12.7912 H       550        0    0.0000
   3307 C         184.2661 -111.7805   13.1293 C.3     551        0    0.0000
   3308 C         183.3277 -112.1741   11.9832 C.3     551        0    0.0000
   3309 H         183.7722 -111.9487   14.0944 H       551        0    0.0000
   3310 H         184.4966 -110.7093   13.0758 H       551        0    0.0000
   3311 H         183.8954 -112.2746   11.0499 H       551        0    0.0000
   3312 H         182.8775 -113.1539   12.1852 H       551        0    0.0000
   3313 C         182.1817 -111.1263   11.7672 C.3     552        0    0.0000
   3314 C         181.5700 -111.2155   10.3648 C.3     552        0    0.0000
   3315 H         181.4068 -111.2883   12.5267 H       552        0    0.0000
   3316 H         182.5853 -110.1207   11.9384 H       552        0    0.0000
   3317 H         182.3501 -111.0830    9.6050 H       552        0    0.0000
   3318 H         181.1401 -112.2120   10.2046 H       552        0    0.0000
   3319 C         180.4527 -110.1402   10.1346 C.3     553        0    0.0000
   3320 C         179.4288 -110.5823    9.0834 C.3     553        0    0.0000
   3321 H         179.9501 -109.9425   11.0895 H       553        0    0.0000
   3322 H         180.9255 -109.1993    9.8268 H       553        0    0.0000
   3323 H         179.9410 -110.8694    8.1567 H       553        0    0.0000
   3324 H         178.8898 -111.4713    9.4338 H       553        0    0.0000
   3325 C         178.3879 -109.4563    8.7574 C.3     554        0    0.0000
   3326 C         177.5352 -109.7916    7.5287 C.3     554        0    0.0000
   3327 H         177.7438 -109.3060    9.6326 H       554        0    0.0000
   3328 H         178.9256 -108.5137    8.5963 H       554        0    0.0000
   3329 H         178.1823 -110.0327    6.6762 H       554        0    0.0000
   3330 H         176.9272 -110.6834    7.7248 H       554        0    0.0000
   3331 C         176.5857 -108.6115    7.1246 C.3     555        0    0.0000
   3332 C         175.4418 -109.0721    6.2144 C.3     555        0    0.0000
   3333 H         176.1807 -108.1555    8.0364 H       555        0    0.0000
   3334 H         177.1783 -107.8373    6.6216 H       555        0    0.0000
   3335 H         175.8468 -109.5509    5.3143 H       555        0    0.0000
   3336 H         174.8342 -109.8280    6.7272 H       555        0    0.0000
   3337 C         174.5129 -107.8859    5.7814 C.3     556        0    0.0000
   3338 C         173.4356 -108.3260    4.7840 C.3     556        0    0.0000
   3339 H         174.0446 -107.4585    6.6766 H       556        0    0.0000
   3340 H         175.1321 -107.0943    5.3413 H       556        0    0.0000
   3341 H         173.9021 -108.7979    3.9103 H       556        0    0.0000
   3342 H         172.7861 -109.0826    5.2413 H       556        0    0.0000
   3343 C         172.5503 -107.1270    4.2981 C.3     557        0    0.0000
   3344 C         171.3793 -107.5869    3.4228 C.3     557        0    0.0000
   3345 H         172.1745 -106.5866    5.1757 H       557        0    0.0000
   3346 H         173.1822 -106.4236    3.7418 H       557        0    0.0000
   3347 H         171.7520 -108.1713    2.5725 H       557        0    0.0000
   3348 H         170.7192 -108.2500    3.9957 H       557        0    0.0000
   3349 C         170.5363 -106.3829    2.8777 C.3     558        0    0.0000
   3350 C         169.3469 -106.8440    2.0281 C.3     558        0    0.0000
   3351 H         170.1827 -105.7854    3.7271 H       558        0    0.0000
   3352 H         171.1915 -105.7318    2.2857 H       558        0    0.0000
   3353 H         169.7005 -107.4418    1.1789 H       558        0    0.0000
   3354 H         168.6915 -107.4946    2.6202 H       558        0    0.0000
   3355 C         168.5044 -105.6399    1.4824 C.3     559        0    0.0000
   3356 C         167.2882 -106.1019    0.6721 C.3     559        0    0.0000
   3357 H         168.1797 -105.0228    2.3294 H       559        0    0.0000
   3358 H         169.1517 -105.0078    0.8619 H       559        0    0.0000
   3359 H         167.6118 -106.7311   -0.1663 H       559        0    0.0000
   3360 H         166.6334 -106.7220    1.2969 H       559        0    0.0000
   3361 C         166.4572 -104.8978    0.1090 C.3     560        0    0.0000
   3362 C         165.2422 -105.3598   -0.7029 C.3     560        0    0.0000
   3363 H         166.1325 -104.2694    0.9476 H       560        0    0.0000
   3364 H         167.1124 -104.2770   -0.5146 H       560        0    0.0000
   3365 H         165.5652 -106.0054   -1.5290 H       560        0    0.0000
   3366 H         164.5765 -105.9632   -0.0734 H       560        0    0.0000
   3367 C         164.4279 -104.1562   -1.2908 C.3     561        0    0.0000
   3368 C         163.1880 -104.6166   -2.0651 C.3     561        0    0.0000
   3369 H         164.1329 -103.4933   -0.4679 H       561        0    0.0000
   3370 H         165.0850 -103.5713   -1.9463 H       561        0    0.0000
   3371 H         163.4831 -105.2784   -2.8888 H       561        0    0.0000
   3372 H         162.5315 -105.2026   -1.4099 H       561        0    0.0000
   3373 C         162.3727 -103.4129   -2.6514 C.3     562        0    0.0000
   3374 C         161.1292 -103.8731   -3.4202 C.3     562        0    0.0000
   3375 H         162.0816 -102.7486   -1.8283 H       562        0    0.0000
   3376 H         163.0278 -102.8296   -3.3103 H       562        0    0.0000
   3377 H         161.4202 -104.5381   -4.2428 H       562        0    0.0000
   3378 H         160.4736 -104.4556   -2.7611 H       562        0    0.0000
   3379 C         160.3147 -102.6694   -4.0076 C.3     563        0    0.0000
   3380 C         159.0661 -103.1291   -4.7684 C.3     563        0    0.0000
   3381 H         160.0296 -102.0008   -3.1859 H       563        0    0.0000
   3382 H         160.9683 -102.0908   -4.6721 H       563        0    0.0000
   3383 H         159.3517 -103.7929   -5.5938 H       563        0    0.0000
   3384 H         158.4153 -103.7127   -4.1055 H       563        0    0.0000
   3385 C         158.2471 -101.9250   -5.3487 C.3     564        0    0.0000
   3386 C         156.9950 -102.3844   -6.1039 C.3     564        0    0.0000
   3387 H         157.9655 -101.2587   -4.5239 H       564        0    0.0000
   3388 H         158.8965 -101.3441   -6.0153 H       564        0    0.0000
   3389 H         157.2770 -103.0465   -6.9319 H       564        0    0.0000
   3390 H         156.3481 -102.9697   -5.4388 H       564        0    0.0000
   3391 C         156.1720 -101.1799   -6.6779 C.3     565        0    0.0000
   3392 C         154.9180 -101.6392   -7.4299 C.3     565        0    0.0000
   3393 H         155.8925 -100.5163   -5.8503 H       565        0    0.0000
   3394 H         156.8182 -100.5963   -7.3453 H       565        0    0.0000
   3395 H         155.1983 -102.2944   -8.2639 H       565        0    0.0000
   3396 H         154.2769 -102.2317   -6.7655 H       565        0    0.0000
   3397 C         154.0872 -100.4341   -7.9912 C.3     566        0    0.0000
   3398 C         152.8307 -100.8932   -8.7392 C.3     566        0    0.0000
   3399 H         153.8097  -99.7771   -7.1576 H       566        0    0.0000
   3400 H         154.7273  -99.8435   -8.6582 H       566        0    0.0000
   3401 H         153.1087 -101.5439   -9.5776 H       566        0    0.0000
   3402 H         152.1943 -101.4905   -8.0745 H       566        0    0.0000
   3403 C         151.9940  -99.6878   -9.2910 C.3     567        0    0.0000
   3404 C         150.7339 -100.1466  -10.0330 C.3     567        0    0.0000
   3405 H         151.7204  -99.0344   -8.4533 H       567        0    0.0000
   3406 H         152.6289  -99.0934   -9.9597 H       567        0    0.0000
   3407 H         151.0082 -100.7921  -10.8766 H       567        0    0.0000
   3408 H         150.1038 -100.7492   -9.3671 H       567        0    0.0000
   3409 C         149.8901  -98.9408  -10.5728 C.3     568        0    0.0000
   3410 C         148.6256  -99.3994  -11.3075 C.3     568        0    0.0000
   3411 H         149.6210  -98.2921   -9.7300 H       568        0    0.0000
   3412 H         150.5184  -98.3416  -11.2434 H       568        0    0.0000
   3413 H         148.8956 -100.0337  -12.1609 H       568        0    0.0000
   3414 H         148.0059 -100.0134  -10.6423 H       568        0    0.0000
   3415 C         147.7690  -98.1931  -11.8256 C.3     569        0    0.0000
   3416 C         146.5028  -98.6517  -12.5573 C.3     569        0    0.0000
   3417 H         147.5011  -97.5575  -10.9725 H       569        0    0.0000
   3418 H         148.3880  -97.5805  -12.4927 H       569        0    0.0000
   3419 H         146.7710  -99.2824  -13.4140 H       569        0    0.0000
   3420 H         145.8867  -99.2693  -11.8921 H       569        0    0.0000
   3421 C         145.6418  -97.4453  -13.0679 C.3     570        0    0.0000
   3422 C         144.3705  -97.9037  -13.7907 C.3     570        0    0.0000
   3423 H         145.3800  -96.8105  -12.2123 H       570        0    0.0000
   3424 H         146.2556  -96.8318  -13.7391 H       570        0    0.0000
   3425 H         144.6339  -98.4683  -14.6937 H       570        0    0.0000
   3426 H         143.7979  -98.5850  -13.1491 H       570        0    0.0000
   3427 C         143.4515  -96.7005  -14.1973 C.3     571        0    0.0000
   3428 C         142.1819  -97.1588  -14.9234 C.3     571        0    0.0000
   3429 H         143.1858  -96.1375  -13.2940 H       571        0    0.0000
   3430 H         144.0249  -96.0179  -14.8367 H       571        0    0.0000
   3431 H         142.4446  -97.8141  -15.7631 H       571        0    0.0000
   3432 H         141.5542  -97.7510  -14.2461 H       571        0    0.0000
   3433 C         141.3406  -95.9530  -15.4673 C.3     572        0    0.0000
   3434 C         140.0686  -96.4111  -16.1893 C.3     572        0    0.0000
   3435 H         141.0809  -95.2959  -14.6281 H       572        0    0.0000
   3436 H         141.9672  -95.3628  -16.1474 H       572        0    0.0000
   3437 H         140.3305  -96.9349  -17.1170 H       572        0    0.0000
   3438 H         139.5202  -97.1286  -15.5664 H       572        0    0.0000
   3439 C         139.1183  -95.2135  -16.5362 C.3     573        0    0.0000
   3440 C         137.8468  -95.6715  -17.2591 C.3     573        0    0.0000
   3441 H         138.8558  -94.6902  -15.6084 H       573        0    0.0000
   3442 H         139.6670  -94.4956  -17.1584 H       573        0    0.0000
   3443 H         138.1097  -96.2759  -18.1361 H       573        0    0.0000
   3444 H         137.2506  -96.3149  -16.6003 H       573        0    0.0000
   3445 C         136.9606  -94.4649  -17.7241 C.3     574        0    0.0000
   3446 C         135.6869  -94.9230  -18.4431 C.3     574        0    0.0000
   3447 H         136.7004  -93.8587  -16.8476 H       574        0    0.0000
   3448 H         137.5558  -93.8232  -18.3856 H       574        0    0.0000
   3449 H         135.9341  -95.2981  -19.4440 H       574        0    0.0000
   3450 H         135.2269  -95.7571  -17.8988 H       574        0    0.0000
   3451 C         134.6351  -93.7688  -18.5816 C.3     575        0    0.0000
   3452 C         133.3613  -94.2270  -19.3003 C.3     575        0    0.0000
   3453 H         134.3881  -93.3936  -17.5807 H       575        0    0.0000
   3454 H         135.0950  -92.9348  -19.1261 H       575        0    0.0000
   3455 H         132.7771  -94.8865  -18.6466 H       575        0    0.0000
   3456 H         132.7248  -93.3623  -19.5255 H       575        0    0.0000
   3457 C         133.6731  -94.9863  -20.6358 C.3     576        0    0.0000
   3458 C         132.4001  -95.3499  -21.4080 C.3     576        0    0.0000
   3459 H         134.3230  -94.3574  -21.2567 H       576        0    0.0000
   3460 H         134.2432  -95.8939  -20.4017 H       576        0    0.0000
   3461 H         132.3603  -94.7920  -22.3518 H       576        0    0.0000
   3462 H         132.4113  -96.4147  -21.6718 H       576        0    0.0000
   3463 C         131.0998  -95.0466  -20.5866 C.3     577        0    0.0000
   3464 C         129.8298  -95.2064  -21.4294 C.3     577        0    0.0000
   3465 H         131.0637  -95.7191  -19.7206 H       577        0    0.0000
   3466 H         131.1622  -94.0256  -20.1901 H       577        0    0.0000
   3467 H         130.0762  -95.1443  -22.4967 H       577        0    0.0000
   3468 H         129.3912  -96.1983  -21.2646 H       577        0    0.0000
   3469 C         128.7538  -94.1163  -21.0952 C.3     578        0    0.0000
   3470 C         127.7830  -93.8827  -22.2579 C.3     578        0    0.0000
   3471 H         128.2010  -94.4280  -20.2003 H       578        0    0.0000
   3472 H         129.2661  -93.1807  -20.8390 H       578        0    0.0000
   3473 H         128.3408  -93.6378  -23.1702 H       578        0    0.0000
   3474 H         127.2211  -94.8009  -22.4691 H       578        0    0.0000
   3475 C         126.7675  -92.7260  -21.9606 C.3     579        0    0.0000
   3476 C         125.3849  -92.9976  -22.5637 C.3     579        0    0.0000
   3477 H         126.6855  -92.5980  -20.8742 H       579        0    0.0000
   3478 H         127.1738  -91.7878  -22.3586 H       579        0    0.0000
   3479 H         125.1842  -94.0761  -22.5737 H       579        0    0.0000
   3480 H         124.6065  -92.5381  -21.9420 H       579        0    0.0000
   3481 C         125.2554  -92.4459  -24.0253 C.3     580        0    0.0000
   3482 C         123.9501  -92.8845  -24.6982 C.3     580        0    0.0000
   3483 H         125.3142  -91.3508  -23.9964 H       580        0    0.0000
   3484 H         126.1157  -92.7922  -24.6115 H       580        0    0.0000
   3485 H         124.1368  -93.1444  -25.7476 H       580        0    0.0000
   3486 H         123.5627  -93.7893  -24.2136 H       580        0    0.0000
   3487 C         122.8490  -91.7701  -24.6418 C.3     581        0    0.0000
   3488 C         121.4334  -92.3547  -24.5835 C.3     581        0    0.0000
   3489 H         123.0311  -91.1372  -23.7644 H       581        0    0.0000
   3490 H         122.9535  -91.1248  -25.5229 H       581        0    0.0000
   3491 H         121.4085  -93.3305  -25.0842 H       581        0    0.0000
   3492 H         121.1407  -92.5282  -23.5406 H       581        0    0.0000
   3493 C         120.3743  -91.4146  -25.2559 C.3     582        0    0.0000
   3494 C         119.1819  -92.1940  -25.8214 C.3     582        0    0.0000
   3495 H         120.0285  -90.6840  -24.5141 H       582        0    0.0000
   3496 H         120.8642  -90.8446  -26.0550 H       582        0    0.0000
   3497 H         119.5138  -92.8518  -26.6342 H       582        0    0.0000
   3498 H         118.7543  -92.8420  -25.0463 H       582        0    0.0000
   3499 C         118.0572  -91.2469  -26.3652 C.3     583        0    0.0000
   3500 C         116.6600  -91.8588  -26.2156 C.3     583        0    0.0000
   3501 H         118.1090  -90.2917  -25.8281 H       583        0    0.0000
   3502 H         118.2603  -91.0264  -27.4205 H       583        0    0.0000
   3503 H         116.5323  -92.6835  -26.9278 H       583        0    0.0000
   3504 H         116.5425  -92.2877  -25.2127 H       583        0    0.0000
   3505 C         115.5222  -90.8066  -26.4516 C.3     584        0    0.0000
   3506 C         114.2888  -91.4247  -27.1192 C.3     584        0    0.0000
   3507 H         115.2453  -90.3630  -25.4872 H       584        0    0.0000
   3508 H         115.9169  -89.9920  -27.0713 H       584        0    0.0000
   3509 H         114.5548  -91.8215  -28.1068 H       584        0    0.0000
   3510 H         113.9255  -92.2731  -26.5262 H       584        0    0.0000
   3511 C         113.1232  -90.3900  -27.2877 C.3     585        0    0.0000
   3512 C         111.7867  -91.0678  -27.6089 C.3     585        0    0.0000
   3513 H         113.0352  -89.8031  -26.3650 H       585        0    0.0000
   3514 H         113.3887  -89.6850  -28.0852 H       585        0    0.0000
   3515 H         111.8781  -91.6646  -28.5249 H       585        0    0.0000
   3516 H         111.5151  -91.7636  -26.8054 H       585        0    0.0000
   3517 C         110.6247  -90.0321  -27.7945 C.3     586        0    0.0000
   3518 C         109.3459  -90.6839  -28.3318 C.3     586        0    0.0000
   3519 H         110.4241  -89.5490  -26.8301 H       586        0    0.0000
   3520 H         110.9605  -89.2427  -28.4784 H       586        0    0.0000
   3521 H         109.5189  -91.0752  -29.3420 H       586        0    0.0000
   3522 H         109.0685  -91.5407  -27.7054 H       586        0    0.0000
   3523 C         108.1419  -89.6809  -28.3778 C.3     587        0    0.0000
   3524 C         106.8281  -90.3680  -28.7660 C.3     587        0    0.0000
   3525 H         108.0411  -89.2042  -27.3949 H       587        0    0.0000
   3526 H         108.3743  -88.8821  -29.0930 H       587        0    0.0000
   3527 H         106.9174  -90.8139  -29.7644 H       587        0    0.0000
   3528 H         106.6141  -91.1901  -28.0719 H       587        0    0.0000
   3529 C         105.6149  -89.3752  -28.7627 C.3     588        0    0.0000
   3530 C         104.3201  -90.0386  -29.2448 C.3     588        0    0.0000
   3531 H         105.4812  -88.9836  -27.7467 H       588        0    0.0000
   3532 H         105.8584  -88.5172  -29.4015 H       588        0    0.0000
   3533 H         104.4208  -90.3413  -30.2945 H       588        0    0.0000
   3534 H         104.1296  -90.9534  -28.6701 H       588        0    0.0000
   3535 C         103.0800  -89.0893  -29.1094 C.3     589        0    0.0000
   3536 C         101.7764  -89.7717  -29.5383 C.3     589        0    0.0000
   3537 H         103.0038  -88.7536  -28.0677 H       589        0    0.0000
   3538 H         103.2530  -88.1927  -29.7174 H       589        0    0.0000
   3539 H         101.8304  -90.0541  -30.5971 H       589        0    0.0000
   3540 H         101.6337  -90.7001  -28.9716 H       589        0    0.0000
   3541 C         100.5256  -88.8515  -29.3239 C.3     590        0    0.0000
   3542 C          99.2303  -89.5087  -29.8132 C.3     590        0    0.0000
   3543 H         100.4443  -88.6081  -28.2573 H       590        0    0.0000
   3544 H         100.6892  -87.9038  -29.8518 H       590        0    0.0000
   3545 H          99.2783  -89.6741  -30.8966 H       590        0    0.0000
   3546 H          99.1105  -90.4954  -29.3489 H       590        0    0.0000
   3547 C          97.9651  -88.6412  -29.4900 C.3     591        0    0.0000
   3548 C          96.6670  -89.3133  -29.9506 C.3     591        0    0.0000
   3549 H          97.9300  -88.4560  -28.4093 H       591        0    0.0000
   3550 H          98.0744  -87.6627  -29.9739 H       591        0    0.0000
   3551 H          96.6936  -89.4797  -31.0346 H       591        0    0.0000
   3552 H          96.5680  -90.3006  -29.4826 H       591        0    0.0000
   3553 C          95.3996  -88.4592  -29.6016 C.3     592        0    0.0000
   3554 C          94.1008  -89.1352  -30.0547 C.3     592        0    0.0000
   3555 H          95.3762  -88.2876  -28.5183 H       592        0    0.0000
   3556 H          95.4958  -87.4741  -30.0746 H       592        0    0.0000
   3557 H          94.0909  -89.2368  -31.1470 H       592        0    0.0000
   3558 H          94.0418  -90.1505  -29.6434 H       592        0    0.0000
   3559 C          92.8282  -88.3351  -29.6101 C.3     593        0    0.0000
   3560 C          91.5292  -89.0154  -30.0562 C.3     593        0    0.0000
   3561 H          92.8412  -88.2283  -28.5183 H       593        0    0.0000
   3562 H          92.8843  -87.3217  -30.0265 H       593        0    0.0000
   3563 H          91.5187  -89.1271  -31.1475 H       593        0    0.0000
   3564 H          91.4705  -90.0268  -29.6354 H       593        0    0.0000
   3565 C          90.2568  -88.2113  -29.6183 C.3     594        0    0.0000
   3566 C          88.9574  -88.8997  -30.0504 C.3     594        0    0.0000
   3567 H          90.2733  -88.0894  -28.5281 H       594        0    0.0000
   3568 H          90.3097  -87.2036  -30.0488 H       594        0    0.0000
   3569 H          88.8985  -88.9388  -31.1452 H       594        0    0.0000
   3570 H          88.9465  -89.9383  -29.6970 H       594        0    0.0000
   3571 C          87.6854  -88.1659  -29.5018 C.3     595        0    0.0000
   3572 C          86.3869  -88.8690  -29.9124 C.3     595        0    0.0000
   3573 H          87.7534  -88.1101  -28.4083 H       595        0    0.0000
   3574 H          87.6866  -87.1327  -29.8706 H       595        0    0.0000
   3575 H          86.3490  -88.9822  -31.0029 H       595        0    0.0000
   3576 H          86.3569  -89.8807  -29.4894 H       595        0    0.0000
   3577 C          85.1129  -88.0864  -29.4412 C.3     596        0    0.0000
   3578 C          83.8144  -88.7888  -29.8529 C.3     596        0    0.0000
   3579 H          85.1503  -87.9739  -28.3505 H       596        0    0.0000
   3580 H          85.1433  -87.0743  -29.8635 H       596        0    0.0000
   3581 H          83.6847  -88.7322  -30.9408 H       596        0    0.0000
   3582 H          83.8656  -89.8543  -29.5968 H       596        0    0.0000
   3583 C          82.5550  -88.1627  -29.1605 C.3     597        0    0.0000
   3584 C          81.2579  -88.8736  -29.5620 C.3     597        0    0.0000
   3585 H          82.6890  -88.2106  -28.0727 H       597        0    0.0000
   3586 H          82.4984  -87.0994  -29.4245 H       597        0    0.0000
   3587 H          81.2835  -89.1291  -30.6286 H       597        0    0.0000
   3588 H          81.1619  -89.8191  -29.0138 H       597        0    0.0000
   3589 C          79.9888  -87.9967  -29.2829 C.3     598        0    0.0000
   3590 C          78.6898  -88.7196  -29.6555 C.3     598        0    0.0000
   3591 H          79.9753  -87.7222  -28.2208 H       598        0    0.0000
   3592 H          80.0742  -87.0608  -29.8490 H       598        0    0.0000
   3593 H          77.8907  -87.9894  -29.8336 H       598        0    0.0000
   3594 H          78.8236  -89.2749  -30.5921 H       598        0    0.0000
   3595 C          78.2235  -89.7166  -28.5393 C.3     599        0    0.0000
   3596 C          76.9242  -90.4392  -28.9117 C.3     599        0    0.0000
   3597 H          79.0225  -90.4471  -28.3614 H       599        0    0.0000
   3598 H          78.0900  -89.1614  -27.6025 H       599        0    0.0000
   3599 H          77.1165  -91.1758  -29.7016 H       599        0    0.0000
   3600 H          76.5427  -90.9967  -28.0472 H       599        0    0.0000
   3601 C          75.8136  -89.4485  -29.4041 C.3     600        0    0.0000
   3602 C          74.4949  -90.1638  -29.7181 C.3     600        0    0.0000
   3603 H          75.6531  -88.6854  -28.6325 H       600        0    0.0000
   3604 H          76.1782  -88.9234  -30.2956 H       600        0    0.0000
   3605 H          74.4700  -90.4605  -30.7740 H       600        0    0.0000
   3606 H          74.4181  -91.0865  -29.1297 H       600        0    0.0000
   3607 C          73.2456  -89.2663  -29.4158 C.3     601        0    0.0000
   3608 C          71.9441  -90.0750  -29.3814 C.3     601        0    0.0000
   3609 H          73.3988  -88.7590  -28.4553 H       601        0    0.0000
   3610 H          73.1808  -88.4816  -30.1798 H       601        0    0.0000
   3611 H          71.7520  -90.5206  -30.3653 H       601        0    0.0000
   3612 H          72.0365  -90.9064  -28.6717 H       601        0    0.0000
   3613 C          70.7103  -89.1979  -28.9743 C.3     602        0    0.0000
   3614 C          69.3791  -89.9113  -29.2352 C.3     602        0    0.0000
   3615 H          70.7961  -88.9384  -27.9119 H       602        0    0.0000
   3616 H          70.7473  -88.2545  -29.5330 H       602        0    0.0000
   3617 H          69.1758  -89.9460  -30.3127 H       602        0    0.0000
   3618 H          69.4362  -90.9516  -28.8917 H       602        0    0.0000
   3619 C          68.1769  -89.2071  -28.5166 C.3     603        0    0.0000
   3620 C          66.8766  -90.0092  -28.6390 C.3     603        0    0.0000
   3621 H          68.4320  -89.0632  -27.4594 H       603        0    0.0000
   3622 H          68.0440  -88.2071  -28.9476 H       603        0    0.0000
   3623 H          66.7529  -90.3706  -29.6674 H       603        0    0.0000
   3624 H          66.9204  -90.8971  -27.9961 H       603        0    0.0000
   3625 C          65.6171  -89.1626  -28.2460 C.3     604        0    0.0000
   3626 C          64.3072  -89.9136  -28.5091 C.3     604        0    0.0000
   3627 H          65.6894  -88.8926  -27.1851 H       604        0    0.0000
   3628 H          65.6322  -88.2228  -28.8119 H       604        0    0.0000
   3629 H          63.8882  -89.6113  -29.4769 H       604        0    0.0000
   3630 H          64.4980  -90.9921  -28.5714 H       604        0    0.0000
   3631 C          63.2385  -89.6532  -27.3922 C.3     605        0    0.0000
   3632 C          61.9213  -90.3874  -27.6662 C.3     605        0    0.0000
   3633 H          63.6518  -89.9697  -26.4266 H       605        0    0.0000
   3634 H          63.0591  -88.5733  -27.3193 H       605        0    0.0000
   3635 H          62.0908  -91.2157  -28.3652 H       605        0    0.0000
   3636 H          61.5381  -90.8312  -26.7389 H       605        0    0.0000
   3637 C          60.8253  -89.4387  -28.2630 C.3     606        0    0.0000
   3638 C          59.4735  -90.1426  -28.4249 C.3     606        0    0.0000
   3639 H          60.7186  -88.5654  -27.6076 H       606        0    0.0000
   3640 H          61.1728  -89.0636  -29.2336 H       606        0    0.0000
   3641 H          58.8432  -89.5886  -29.1316 H       606        0    0.0000
   3642 H          59.6190  -91.1434  -28.8501 H       606        0    0.0000
   3643 C          58.7075  -90.2783  -27.0639 C.3     607        0    0.0000
   3644 C          57.4535  -91.1507  -27.1876 C.3     607        0    0.0000
   3645 H          59.3885  -90.7024  -26.3156 H       607        0    0.0000
   3646 H          58.4352  -89.2762  -26.7099 H       607        0    0.0000
   3647 H          57.5262  -91.7900  -28.0762 H       607        0    0.0000
   3648 H          57.3749  -91.8212  -26.3228 H       607        0    0.0000
   3649 C          56.1427  -90.2965  -27.2854 C.3     608        0    0.0000
   3650 C          54.8931  -91.1675  -27.4553 C.3     608        0    0.0000
   3651 H          56.0528  -89.6820  -26.3811 H       608        0    0.0000
   3652 H          56.2352  -89.6025  -28.1300 H       608        0    0.0000
   3653 H          54.7477  -91.4143  -28.5143 H       608        0    0.0000
   3654 H          55.0229  -92.1190  -26.9250 H       608        0    0.0000
   3655 C          53.6000  -90.4623  -26.9187 C.3     609        0    0.0000
   3656 C          52.4486  -91.4497  -26.6989 C.3     609        0    0.0000
   3657 H          53.8407  -89.9499  -25.9790 H       609        0    0.0000
   3658 H          53.2985  -89.6858  -27.6327 H       609        0    0.0000
   3659 H          52.2398  -91.9967  -27.6267 H       609        0    0.0000
   3660 H          52.7330  -92.1983  -25.9491 H       609        0    0.0000
   3661 C          51.1353  -90.7355  -26.2270 C.3     610        0    0.0000
   3662 C          49.8859  -91.5825  -26.4925 C.3     610        0    0.0000
   3663 H          51.2188  -90.5136  -25.1558 H       610        0    0.0000
   3664 H          51.0525  -89.7709  -26.7429 H       610        0    0.0000
   3665 H          49.6945  -91.6427  -27.5710 H       610        0    0.0000
   3666 H          50.0468  -92.6099  -26.1432 H       610        0    0.0000
   3667 C          48.6131  -91.0018  -25.7850 C.3     611        0    0.0000
   3668 C          47.4261  -91.9698  -25.8391 C.3     611        0    0.0000
   3669 H          48.8628  -90.7706  -24.7421 H       611        0    0.0000
   3670 H          48.3456  -90.0513  -26.2631 H       611        0    0.0000
   3671 H          47.3219  -92.3812  -26.8507 H       611        0    0.0000
   3672 H          47.6037  -92.8206  -25.1697 H       611        0    0.0000
   3673 C          46.0782  -91.2801  -25.4329 C.3     612        0    0.0000
   3674 C          44.8750  -92.2155  -25.5956 C.3     612        0    0.0000
   3675 H          46.1536  -90.9418  -24.3920 H       612        0    0.0000
   3676 H          45.9417  -90.3814  -26.0471 H       612        0    0.0000
   3677 H          44.6981  -92.4193  -26.6589 H       612        0    0.0000
   3678 H          45.0829  -93.1819  -25.1199 H       612        0    0.0000
   3679 C          43.5678  -91.6160  -24.9717 C.3     613        0    0.0000
   3680 C          42.3923  -92.5976  -25.0320 C.3     613        0    0.0000
   3681 H          43.7696  -91.3344  -23.9308 H       613        0    0.0000
   3682 H          43.3134  -90.6914  -25.5045 H       613        0    0.0000
   3683 H          42.1587  -92.8411  -26.0759 H       613        0    0.0000
   3684 H          42.6642  -93.5407  -24.5418 H       613        0    0.0000
   3685 C          41.1041  -92.0248  -24.3463 C.3     614        0    0.0000
   3686 C          39.8686  -92.8907  -24.6161 C.3     614        0    0.0000
   3687 H          41.2822  -91.9494  -23.2665 H       614        0    0.0000
   3688 H          40.9345  -91.0037  -24.7097 H       614        0    0.0000
   3689 H          39.6781  -92.9486  -25.6950 H       614        0    0.0000
   3690 H          40.0462  -93.9171  -24.2720 H       614        0    0.0000
   3691 C          38.5867  -92.3344  -23.9058 C.3     615        0    0.0000
   3692 C          37.3899  -93.2821  -24.0415 C.3     615        0    0.0000
   3693 H          38.8147  -92.1657  -22.8460 H       615        0    0.0000
   3694 H          38.3415  -91.3549  -24.3350 H       615        0    0.0000
   3695 H          37.1511  -93.4372  -25.1010 H       615        0    0.0000
   3696 H          37.6408  -94.2666  -23.6278 H       615        0    0.0000
   3697 C          36.1145  -92.7371  -23.3108 C.3     616        0    0.0000
   3698 C          34.8669  -93.5719  -23.6195 C.3     616        0    0.0000
   3699 H          36.3031  -92.7279  -22.2301 H       616        0    0.0000
   3700 H          35.9533  -91.6944  -23.6113 H       616        0    0.0000
   3701 H          34.6182  -93.4967  -24.6854 H       616        0    0.0000
   3702 H          35.0636  -94.6318  -23.4159 H       616        0    0.0000
   3703 C          33.6248  -93.1177  -22.7778 C.3     617        0    0.0000
   3704 C          32.3741  -93.9448  -23.0952 C.3     617        0    0.0000
   3705 H          33.8705  -93.2011  -21.7118 H       617        0    0.0000
   3706 H          33.4334  -92.0556  -22.9747 H       617        0    0.0000
   3707 H          32.1386  -93.8753  -24.1644 H       617        0    0.0000
   3708 H          32.5599  -95.0047  -22.8817 H       617        0    0.0000
   3709 C          31.1261  -93.4746  -22.2712 C.3     618        0    0.0000
   3710 C          29.8744  -94.2990  -22.5916 C.3     618        0    0.0000
   3711 H          31.3606  -93.5469  -21.2020 H       618        0    0.0000
   3712 H          30.9422  -92.4139  -22.4824 H       618        0    0.0000
   3713 H          29.6229  -94.2031  -23.6552 H       618        0    0.0000
   3714 H          30.0678  -95.3632  -22.4084 H       618        0    0.0000
   3715 C          28.6366  -93.8561  -21.7377 C.3     619        0    0.0000
   3716 C          27.3700  -94.6385  -22.1016 C.3     619        0    0.0000
   3717 H          28.8722  -93.9947  -20.6752 H       619        0    0.0000
   3718 H          28.4709  -92.7818  -21.8861 H       619        0    0.0000
   3719 H          27.0846  -94.4303  -23.1402 H       619        0    0.0000
   3720 H          27.5625  -95.7166  -22.0379 H       619        0    0.0000
   3721 C          26.1635  -94.2845  -21.1654 C.3     620        0    0.0000
   3722 C          24.8740  -94.9992  -21.5843 C.3     620        0    0.0000
   3723 H          26.4249  -94.5537  -20.1345 H       620        0    0.0000
   3724 H          26.0126  -93.1979  -21.1786 H       620        0    0.0000
   3725 H          24.6116  -94.7286  -22.6145 H       620        0    0.0000
   3726 H          25.0254  -96.0857  -21.5727 H       620        0    0.0000
   3727 C          23.6681  -94.6471  -20.6466 C.3     621        0    0.0000
   3728 C          22.3866  -95.3871  -21.0456 C.3     621        0    0.0000
   3729 H          23.9396  -94.8955  -19.6130 H       621        0    0.0000
   3730 H          23.5015  -93.5632  -20.6767 H       621        0    0.0000
   3731 H          22.1087  -95.1296  -22.0752 H       621        0    0.0000
   3732 H          22.5567  -96.4708  -21.0269 H       621        0    0.0000
   3733 C          21.1849  -95.0478  -20.0979 C.3     622        0    0.0000
   3734 C          19.8870  -95.7347  -20.5368 C.3     622        0    0.0000
   3735 H          21.4440  -95.3511  -19.0759 H       622        0    0.0000
   3736 H          21.0466  -93.9596  -20.0781 H       622        0    0.0000
   3737 H          19.5997  -95.3912  -21.5383 H       622        0    0.0000
   3738 H          20.0404  -96.8186  -20.6076 H       622        0    0.0000
   3739 C          18.7032  -95.4553  -19.5479 C.3     623        0    0.0000
   3740 C          17.3967  -96.1133  -20.0053 C.3     623        0    0.0000
   3741 H          18.9805  -95.8221  -18.5519 H       623        0    0.0000
   3742 H          18.5665  -94.3706  -19.4574 H       623        0    0.0000
   3743 H          17.1196  -95.7468  -21.0015 H       623        0    0.0000
   3744 H          17.5333  -97.1981  -20.0955 H       623        0    0.0000
   3745 C          16.2128  -95.8336  -19.0166 C.3     624        0    0.0000
   3746 C          14.9100  -96.5043  -19.4660 C.3     624        0    0.0000
   3747 H          16.4943  -96.1899  -18.0180 H       624        0    0.0000
   3748 H          16.0689  -94.7491  -18.9352 H       624        0    0.0000
   3749 H          14.6230  -96.1403  -20.4604 H       624        0    0.0000
   3750 H          15.0567  -97.5876  -19.5573 H       624        0    0.0000
   3751 C          13.7295  -96.2364  -18.4699 C.3     625        0    0.0000
   3752 C          12.4225  -96.8928  -18.9281 C.3     625        0    0.0000
   3753 H          14.0115  -96.6117  -17.4783 H       625        0    0.0000
   3754 H          13.5910  -95.1528  -18.3689 H       625        0    0.0000
   3755 H          12.1328  -96.5065  -19.9131 H       625        0    0.0000
   3756 H          12.5651  -97.9745  -19.0433 H       625        0    0.0000
   3757 C          11.2472  -96.6424  -17.9214 C.3     626        0    0.0000
   3758 C           9.9375  -97.2894  -18.3852 C.3     626        0    0.0000
   3759 H          11.5337  -97.0360  -16.9383 H       626        0    0.0000
   3760 H          11.1101  -95.5608  -17.7999 H       626        0    0.0000
   3761 H           9.6501  -96.8946  -19.3676 H       626        0    0.0000
   3762 H          10.0750  -98.3708  -18.5082 H       626        0    0.0000
   3763 C           8.7627  -97.0409  -17.3774 C.3     627        0    0.0000
   3764 C           7.4557  -97.6975  -17.8355 C.3     627        0    0.0000
   3765 H           9.0533  -97.4282  -16.3930 H       627        0    0.0000
   3766 H           8.6196  -95.9595  -17.2607 H       627        0    0.0000
   3767 H           7.1612  -97.3048  -18.8166 H       627        0    0.0000
   3768 H           7.6008  -98.7779  -17.9593 H       627        0    0.0000
   3769 C           6.2836  -97.4578  -16.8226 C.3     628        0    0.0000
   3770 C           4.9752  -98.1096  -17.2834 C.3     628        0    0.0000
   3771 H           6.5765  -97.8542  -15.8425 H       628        0    0.0000
   3772 H           6.1413  -96.3774  -16.6957 H       628        0    0.0000
   3773 H           4.6800  -97.7101  -18.2616 H       628        0    0.0000
   3774 H           5.1187  -99.1894  -17.4144 H       628        0    0.0000
   3775 C           3.8045  -97.8750  -16.2676 C.3     629        0    0.0000
   3776 C           2.4954  -98.5242  -16.7300 C.3     629        0    0.0000
   3777 H           4.0988  -98.2767  -15.2900 H       629        0    0.0000
   3778 H           3.6627  -96.7953  -16.1348 H       629        0    0.0000
   3779 H           2.1985  -98.1188  -17.7053 H       629        0    0.0000
   3780 H           2.6386  -99.6031  -16.8676 H       629        0    0.0000
   3781 C           1.3265  -98.2956  -15.7108 C.3     630        0    0.0000
   3782 C           0.0174  -98.9449  -16.1730 C.3     630        0    0.0000
   3783 H           1.6235  -98.7007  -14.7355 H       630        0    0.0000
   3784 H           1.1832  -97.2166  -15.5733 H       630        0    0.0000
   3785 H          -0.2829  -98.5351  -17.1453 H       630        0    0.0000
   3786 H           0.1625 -100.0228  -16.3167 H       630        0    0.0000
   3787 C          -1.1492  -98.7241  -15.1494 C.3     631        0    0.0000
   3788 C          -2.4595  -99.3692  -15.6141 C.3     631        0    0.0000
   3789 H          -0.8502  -99.1372  -14.1781 H       631        0    0.0000
   3790 H          -1.2917  -97.6463  -15.0029 H       631        0    0.0000
   3791 H          -2.7592  -98.9550  -16.5847 H       631        0    0.0000
   3792 H          -2.3166 -100.4468  -15.7619 H       631        0    0.0000
   3793 C          -3.6256  -99.1500  -14.5895 C.3     632        0    0.0000
   3794 C          -4.9343  -99.8006  -15.0512 C.3     632        0    0.0000
   3795 H          -3.3241  -99.5600  -13.6176 H       632        0    0.0000
   3796 H          -3.7716  -98.0724  -14.4452 H       632        0    0.0000
   3797 H          -5.2374  -99.3884  -16.0216 H       632        0    0.0000
   3798 H          -4.7874 -100.8777  -15.1985 H       632        0    0.0000
   3799 C          -6.0993  -99.5852  -14.0245 C.3     633        0    0.0000
   3800 C          -7.4074 -100.2375  -14.4852 C.3     633        0    0.0000
   3801 H          -5.7955  -99.9960  -13.0537 H       633        0    0.0000
   3802 H          -6.2471  -98.5080  -13.8784 H       633        0    0.0000
   3803 H          -7.7133  -99.8238  -15.4541 H       633        0    0.0000
   3804 H          -7.2585 -101.3140  -14.6351 H       633        0    0.0000
   3805 C          -8.5709 -100.0269  -13.4559 C.3     634        0    0.0000
   3806 C          -9.8809 -100.6732  -13.9198 C.3     634        0    0.0000
   3807 H          -8.2671 -100.4452  -12.4883 H       634        0    0.0000
   3808 H          -8.7164  -98.9505  -13.3021 H       634        0    0.0000
   3809 H         -10.1860 -100.2533  -14.8863 H       634        0    0.0000
   3810 H          -9.7348 -101.7493  -14.0759 H       634        0    0.0000
   3811 C         -11.0436 -100.4654  -12.8891 C.3     635        0    0.0000
   3812 C         -12.3530 -101.1136  -13.3520 C.3     635        0    0.0000
   3813 H         -10.7379 -100.8840  -11.9222 H       635        0    0.0000
   3814 H         -11.1907  -99.3894  -12.7341 H       635        0    0.0000
   3815 H         -12.6598 -100.6934  -14.3178 H       635        0    0.0000
   3816 H         -12.2054 -102.1892  -13.5091 H       635        0    0.0000
   3817 C         -13.5149 -100.9085  -12.3198 C.3     636        0    0.0000
   3818 C         -14.8230 -101.5608  -12.7804 C.3     636        0    0.0000
   3819 H         -13.2067 -101.3255  -11.3530 H       636        0    0.0000
   3820 H         -13.6649  -99.8327  -12.1654 H       636        0    0.0000
   3821 H         -15.1318 -101.1430  -13.7467 H       636        0    0.0000
   3822 H         -14.6727 -102.6363  -12.9359 H       636        0    0.0000
   3823 C         -15.9845 -101.3570  -11.7475 C.3     637        0    0.0000
   3824 C         -17.2923 -102.0102  -12.2076 C.3     637        0    0.0000
   3825 H         -15.6754 -101.7740  -10.7810 H       637        0    0.0000
   3826 H         -16.1354 -100.2814  -11.5927 H       637        0    0.0000
   3827 H         -17.6029 -101.5913  -13.1728 H       637        0    0.0000
   3828 H         -17.1408 -103.0853  -12.3650 H       637        0    0.0000
   3829 C         -18.4528 -101.8097  -11.1729 C.3     638        0    0.0000
   3830 C         -19.7627 -102.4564  -11.6366 C.3     638        0    0.0000
   3831 H         -18.1445 -102.2337  -10.2092 H       638        0    0.0000
   3832 H         -18.6006 -100.7347  -11.0113 H       638        0    0.0000
   3833 H         -20.0730 -102.0296  -12.5984 H       638        0    0.0000
   3834 H         -19.6139 -103.5306  -11.8020 H       638        0    0.0000
   3835 C         -20.9217 -102.2606  -10.5994 C.3     639        0    0.0000
   3836 C         -22.2348 -102.8964  -11.0688 C.3     639        0    0.0000
   3837 H         -20.6149 -102.6956   -9.6401 H       639        0    0.0000
   3838 H         -21.0642 -101.1866  -10.4270 H       639        0    0.0000
   3839 H         -22.5421 -102.4606  -12.0276 H       639        0    0.0000
   3840 H         -22.0920 -103.9702  -11.2421 H       639        0    0.0000
   3841 C         -23.3935 -102.7018  -10.0309 C.3     640        0    0.0000
   3842 C         -24.6996 -103.3606  -10.4881 C.3     640        0    0.0000
   3843 H         -23.0785 -103.1201   -9.0668 H       640        0    0.0000
   3844 H         -23.5494 -101.6275   -9.8723 H       640        0    0.0000
   3845 H         -25.0123 -102.9453  -11.4542 H       640        0    0.0000
   3846 H         -24.5446 -104.4356  -10.6427 H       640        0    0.0000
   3847 C         -25.8598 -103.1611   -9.4529 C.3     641        0    0.0000
   3848 C         -27.1616 -103.8332   -9.9028 C.3     641        0    0.0000
   3849 H         -25.5426 -103.5661   -8.4840 H       641        0    0.0000
   3850 H         -26.0224 -102.0860   -9.3070 H       641        0    0.0000
   3851 H         -27.4825 -103.4230  -10.8684 H       641        0    0.0000
   3852 H         -26.9973 -104.9070  -10.0556 H       641        0    0.0000
   3853 C         -28.3190 -103.6421   -8.8629 C.3     642        0    0.0000
   3854 C         -29.6461 -104.2290   -9.3565 C.3     642        0    0.0000
   3855 H         -28.0267 -104.1157   -7.9175 H       642        0    0.0000
   3856 H         -28.4353 -102.5710   -8.6560 H       642        0    0.0000
   3857 H         -29.9396 -103.7537  -10.3006 H       642        0    0.0000
   3858 H         -29.5292 -105.2996   -9.5657 H       642        0    0.0000
   3859 C         -30.8027 -104.0410   -8.3151 C.3     643        0    0.0000
   3860 C         -32.1017 -104.7215   -8.7607 C.3     643        0    0.0000
   3861 H         -30.4779 -104.4464   -7.3489 H       643        0    0.0000
   3862 H         -30.9726 -102.9676   -8.1653 H       643        0    0.0000
   3863 H         -32.4124 -104.3350   -9.7392 H       643        0    0.0000
   3864 H         -31.9383 -105.7992   -8.8851 H       643        0    0.0000
   3865 C         -33.2686 -104.5022   -7.7371 C.3     644        0    0.0000
   3866 C         -34.5032 -105.3456   -8.0743 C.3     644        0    0.0000
   3867 H         -32.9076 -104.7494   -6.7310 H       644        0    0.0000
   3868 H         -33.5324 -103.4375   -7.7244 H       644        0    0.0000
   3869 H         -34.8881 -105.0700   -9.0639 H       644        0    0.0000
   3870 H         -34.2308 -106.4070   -8.1266 H       644        0    0.0000
   3871 C         -35.6492 -105.1693   -7.0193 C.3     645        0    0.0000
   3872 C         -37.0330 -105.0877   -7.6731 C.3     645        0    0.0000
   3873 H         -35.6146 -106.0104   -6.3158 H       645        0    0.0000
   3874 H         -35.4552 -104.2615   -6.4347 H       645        0    0.0000
   3875 H         -37.0690 -104.2439   -8.3733 H       645        0    0.0000
   3876 H         -37.2252 -105.9936   -8.2612 H       645        0    0.0000
   3877 C         -38.1796 -104.9178   -6.6177 C.3     646        0    0.0000
   3878 C         -39.3350 -105.8970   -6.8525 C.3     646        0    0.0000
   3879 H         -37.7610 -105.0636   -5.6141 H       646        0    0.0000
   3880 H         -38.5476 -103.8851   -6.6585 H       646        0    0.0000
   3881 H         -39.6112 -105.9053   -7.9142 H       646        0    0.0000
   3882 H         -39.0204 -106.9174   -6.6008 H       646        0    0.0000
   3883 C         -40.6023 -105.5352   -6.0036 C.3     647        0    0.0000
   3884 C         -41.0329 -106.6835   -5.0843 C.3     647        0    0.0000
   3885 H         -40.3858 -104.6387   -5.4095 H       647        0    0.0000
   3886 H         -41.4208 -105.2716   -6.6849 H       647        0    0.0000
   3887 H         -41.5575 -107.4530   -5.6641 H       647        0    0.0000
   3888 H         -40.1503 -107.1660   -4.6465 H       647        0    0.0000
   3889 C         -41.9700 -106.1973   -3.9255 C.3     648        0    0.0000
   3890 C         -43.4274 -106.6199   -4.1410 C.3     648        0    0.0000
   3891 H         -41.5975 -106.6018   -2.9762 H       648        0    0.0000
   3892 H         -41.9022 -105.1049   -3.8506 H       648        0    0.0000
   3893 H         -43.7694 -106.2990   -5.1328 H       648        0    0.0000
   3894 H         -43.5092 -107.7136   -4.1182 H       648        0    0.0000
   3895 C         -44.3868 -106.0187   -3.0568 C.3     649        0    0.0000
   3896 C         -45.8635 -106.1813   -3.4335 C.3     649        0    0.0000
   3897 H         -44.1873 -106.5101   -2.0964 H       649        0    0.0000
   3898 H         -44.1476 -104.9564   -2.9228 H       649        0    0.0000
   3899 H         -46.1188 -105.5023   -4.2565 H       649        0    0.0000
   3900 H         -46.0492 -107.1999   -3.7963 H       649        0    0.0000
   3901 C         -46.8201 -105.8931   -2.2254 C.3     650        0    0.0000
   3902 C         -48.2480 -106.3859   -2.4847 C.3     650        0    0.0000
   3903 H         -46.4125 -106.3760   -1.3286 H       650        0    0.0000
   3904 H         -46.8247 -104.8140   -2.0276 H       650        0    0.0000
   3905 H         -48.6548 -105.9046   -3.3827 H       650        0    0.0000
   3906 H         -48.2436 -107.4654   -2.6804 H       650        0    0.0000
   3907 C         -49.2052 -106.0950   -1.2778 C.3     651        0    0.0000
   3908 C         -50.6591 -106.4695   -1.5863 C.3     651        0    0.0000
   3909 H         -48.8505 -106.6534   -0.4026 H       651        0    0.0000
   3910 H         -49.1372 -105.0306   -1.0212 H       651        0    0.0000
   3911 H         -51.1020 -105.7301   -2.2650 H       651        0    0.0000
   3912 H         -50.6969 -107.4355   -2.1047 H       651        0    0.0000
   3913 C         -51.5378 -106.5564   -0.2909 C.3     652        0    0.0000
   3914 C         -52.9833 -106.9645   -0.5960 C.3     652        0    0.0000
   3915 H         -51.0809 -107.2772    0.3985 H       652        0    0.0000
   3916 H         -51.5204 -105.5828    0.2142 H       652        0    0.0000
   3917 H         -53.2155 -106.7669   -1.6498 H       652        0    0.0000
   3918 H         -53.1100 -108.0433   -0.4424 H       652        0    0.0000
   3919 C         -54.0179 -106.2014    0.3011 C.3     653        0    0.0000
   3920 C         -55.4647 -106.5923   -0.0200 C.3     653        0    0.0000
   3921 H         -53.7961 -106.4128    1.3546 H       653        0    0.0000
   3922 H         -53.8797 -105.1223    0.1605 H       653        0    0.0000
   3923 H         -56.1466 -106.1471    0.7151 H       653        0    0.0000
   3924 H         -55.7535 -106.1928   -1.0000 H       653        0    0.0000
   3925 C         -55.6729 -108.1460   -0.0262 C.3     654        0    0.0000
   3926 C         -57.0963 -108.5396   -0.4362 C.3     654        0    0.0000
   3927 H         -54.9454 -108.5975   -0.7121 H       654        0    0.0000
   3928 H         -55.4478 -108.5369    0.9738 H       654        0    0.0000
   3929 H         -57.2146 -108.4447   -1.5227 H       654        0    0.0000
   3930 H         -57.2811 -109.5926   -0.1900 H       654        0    0.0000
   3931 C         -58.1832 -107.6574    0.2694 C.3     655        0    0.0000
   3932 C         -59.5484 -107.7555   -0.4204 C.3     655        0    0.0000
   3933 H         -58.2677 -107.9712    1.3172 H       655        0    0.0000
   3934 H         -57.8408 -106.6152    0.2793 H       655        0    0.0000
   3935 H         -59.9489 -106.7513   -0.6064 H       655        0    0.0000
   3936 H         -59.4412 -108.2383   -1.3997 H       655        0    0.0000
   3937 C         -60.5872 -108.5642    0.4307 C.3     656        0    0.0000
   3938 C         -61.4219 -109.5212   -0.4276 C.3     656        0    0.0000
   3939 H         -60.0496 -109.1252    1.2051 H       656        0    0.0000
   3940 H         -61.2438 -107.8570    0.9525 H       656        0    0.0000
   3941 H         -62.1376 -110.0641    0.2021 H       656        0    0.0000
   3942 H         -62.0120 -108.9539   -1.1580 H       656        0    0.0000
   3943 C         -60.5332 -110.5606   -1.1939 C.3     657        0    0.0000
   3944 C         -61.3713 -111.6264   -1.9084 C.3     657        0    0.0000
   3945 H         -59.9082 -110.0248   -1.9192 H       657        0    0.0000
   3946 H         -59.8496 -111.0360   -0.4796 H       657        0    0.0000
   3947 H         -61.9962 -112.1621   -1.1832 H       657        0    0.0000
   3948 H         -62.0549 -111.1509   -2.6227 H       657        0    0.0000
   3949 H         -60.7533 -112.3491   -2.4413 H       657        0    0.0000
   3950 H         -61.7848  -13.7702    0.8889 H         0        0    0.0000
@<TRIPOS>BOND
     1     1     2      1
     2     1     3      1
     3     1     4      1
     4     1  3950      H
     5     2     5      1
     6     2     6      1
     7     2     7      1
     8     7     8      1
     9     7     9      1
    10     7    10      1
    11     8    11      1
    12     8    12      1
    13     8    13      1
    14    13    14      1
    15    13    15      1
    16    13    16      1
    17    14    17      1
    18    14    18      1
    19    14    19      1
    20    19    20      1
    21    19    21      1
    22    19    22      1
    23    20    23      1
    24    20    24      1
    25    20    25      1
    26    25    26      1
    27    25    27      1
    28    25    28      1
    29    26    29      1
    30    26    30      1
    31    26    31      1
    32    31    32      1
    33    31    33      1
    34    31    34      1
    35    32    35      1
    36    32    36      1
    37    32    37      1
    38    37    38      1
    39    37    39      1
    40    37    40      1
    41    38    41      1
    42    38    42      1
    43    38    43      1
    44    43    44      1
    45    43    45      1
    46    43    46      1
    47    44    47      1
    48    44    48      1
    49    44    49      1
    50    49    50      1
    51    49    51      1
    52    49    52      1
    53    50    53      1
    54    50    54      1
    55    50    55      1
    56    55    56      1
    57    55    57      1
    58    55    58      1
    59    56    59      1
    60    56    60      1
    61    56    61      1
    62    61    62      1
    63    61    63      1
    64    61    64      1
    65    62    65      1
    66    62    66      1
    67    62    67      1
    68    67    68      1
    69    67    69      1
    70    67    70      1
    71    68    71      1
    72    68    72      1
    73    68    73      1
    74    73    74      1
    75    73    75      1
    76    73    76      1
    77    74    77      1
    78    74    78      1
    79    74    79      1
    80    79    80      1
    81    79    81      1
    82    79    82      1
    83    80    83      1
    84    80    84      1
    85    80    85      1
    86    85    86      1
    87    85    87      1
    88    85    88      1
    89    86    89      1
    90    86    90      1
    91    86    91      1
    92    91    92      1
    93    91    93      1
    94    91    94      1
    95    92    95      1
    96    92    96      1
    97    92    97      1
    98    97    98      1
    99    97    99      1
   100    97   100      1
   101    98   101      1
   102    98   102      1
   103    98   103      1
   104   103   104      1
   105   103   105      1
   106   103   106      1
   107   104   107      1
   108   104   108      1
   109   104   109      1
   110   109   110      1
   111   109   111      1
   112   109   112      1
   113   110   113      1
   114   110   114      1
   115   110   115      1
   116   115   116      1
   117   115   117      1
   118   115   118      1
   119   116   119      1
   120   116   120      1
   121   116   121      1
   122   121   122      1
   123   121   123      1
   124   121   124      1
   125   122   125      1
   126   122   126      1
   127   122   127      1
   128   127   128      1
   129   127   129      1
   130   127   130      1
   131   128   131      1
   132   128   132      1
   133   128   133      1
   134   133   134      1
   135   133   135      1
   136   133   136      1
   137   134   137      1
   138   134   138      1
   139   134   139      1
   140   139   140      1
   141   139   141      1
   142   139   142      1
   143   140   143      1
   144   140   144      1
   145   140   145      1
   146   145   146      1
   147   145   147      1
   148   145   148      1
   149   146   149      1
   150   146   150      1
   151   146   151      1
   152   151   152      1
   153   151   153      1
   154   151   154      1
   155   152   155      1
   156   152   156      1
   157   152   157      1
   158   157   158      1
   159   157   159      1
   160   157   160      1
   161   158   161      1
   162   158   162      1
   163   158   163      1
   164   163   164      1
   165   163   165      1
   166   163   166      1
   167   164   167      1
   168   164   168      1
   169   164   169      1
   170   169   170      1
   171   169   171      1
   172   169   172      1
   173   170   173      1
   174   170   174      1
   175   170   175      1
   176   175   176      1
   177   175   177      1
   178   175   178      1
   179   176   179      1
   180   176   180      1
   181   176   181      1
   182   181   182      1
   183   181   183      1
   184   181   184      1
   185   182   185      1
   186   182   186      1
   187   182   187      1
   188   187   188      1
   189   187   189      1
   190   187   190      1
   191   188   191      1
   192   188   192      1
   193   188   193      1
   194   193   194      1
   195   193   195      1
   196   193   196      1
   197   194   197      1
   198   194   198      1
   199   194   199      1
   200   199   200      1
   201   199   201      1
   202   199   202      1
   203   200   203      1
   204   200   204      1
   205   200   205      1
   206   205   206      1
   207   205   207      1
   208   205   208      1
   209   206   209      1
   210   206   210      1
   211   206   211      1
   212   211   212      1
   213   211   213      1
   214   211   214      1
   215   212   215      1
   216   212   216      1
   217   212   217      1
   218   217   218      1
   219   217   219      1
   220   217   220      1
   221   218   221      1
   222   218   222      1
   223   218   223      1
   224   223   224      1
   225   223   225      1
   226   223   226      1
   227   224   227      1
   228   224   228      1
   229   224   229      1
   230   229   230      1
   231   229   231      1
   232   229   232      1
   233   230   233      1
   234   230   234      1
   235   230   235      1
   236   235   236      1
   237   235   237      1
   238   235   238      1
   239   236   239      1
   240   236   240      1
   241   236   241      1
   242   241   242      1
   243   241   243      1
   244   241   244      1
   245   242   245      1
   246   242   246      1
   247   242   247      1
   248   247   248      1
   249   247   249      1
   250   247   250      1
   251   248   251      1
   252   248   252      1
   253   248   253      1
   254   253   254      1
   255   253   255      1
   256   253   256      1
   257   254   257      1
   258   254   258      1
   259   254   259      1
   260   259   260      1
   261   259   261      1
   262   259   262      1
   263   260   263      1
   264   260   264      1
   265   260   265      1
   266   265   266      1
   267   265   267      1
   268   265   268      1
   269   266   269      1
   270   266   270      1
   271   266   271      1
   272   271   272      1
   273   271   273      1
   274   271   274      1
   275   272   275      1
   276   272   276      1
   277   272   277      1
   278   277   278      1
   279   277   279      1
   280   277   280      1
   281   278   281      1
   282   278   282      1
   283   278   283      1
   284   283   284      1
   285   283   285      1
   286   283   286      1
   287   284   287      1
   288   284   288      1
   289   284   289      1
   290   289   290      1
   291   289   291      1
   292   289   292      1
   293   290   293      1
   294   290   294      1
   295   290   295      1
   296   295   296      1
   297   295   297      1
   298   295   298      1
   299   296   299      1
   300   296   300      1
   301   296   301      1
   302   301   302      1
   303   301   303      1
   304   301   304      1
   305   302   305      1
   306   302   306      1
   307   302   307      1
   308   307   308      1
   309   307   309      1
   310   307   310      1
   311   308   311      1
   312   308   312      1
   313   308   313      1
   314   313   314      1
   315   313   315      1
   316   313   316      1
   317   314   317      1
   318   314   318      1
   319   314   319      1
   320   319   320      1
   321   319   321      1
   322   319   322      1
   323   320   323      1
   324   320   324      1
   325   320   325      1
   326   325   326      1
   327   325   327      1
   328   325   328      1
   329   326   329      1
   330   326   330      1
   331   326   331      1
   332   331   332      1
   333   331   333      1
   334   331   334      1
   335   332   335      1
   336   332   336      1
   337   332   337      1
   338   337   338      1
   339   337   339      1
   340   337   340      1
   341   338   341      1
   342   338   342      1
   343   338   343      1
   344   343   344      1
   345   343   345      1
   346   343   346      1
   347   344   347      1
   348   344   348      1
   349   344   349      1
   350   349   350      1
   351   349   351      1
   352   349   352      1
   353   350   353      1
   354   350   354      1
   355   350   355      1
   356   355   356      1
   357   355   357      1
   358   355   358      1
   359   356   359      1
   360   356   360      1
   361   356   361      1
   362   361   362      1
   363   361   363      1
   364   361   364      1
   365   362   365      1
   366   362   366      1
   367   362   367      1
   368   367   368      1
   369   367   369      1
   370   367   370      1
   371   368   371      1
   372   368   372      1
   373   368   373      1
   374   373   374      1
   375   373   375      1
   376   373   376      1
   377   374   377      1
   378   374   378      1
   379   374   379      1
   380   379   380      1
   381   379   381      1
   382   379   382      1
   383   380   383      1
   384   380   384      1
   385   380   385      1
   386   385   386      1
   387   385   387      1
   388   385   388      1
   389   386   389      1
   390   386   390      1
   391   386   391      1
   392   391   392      1
   393   391   393      1
   394   391   394      1
   395   392   395      1
   396   392   396      1
   397   392   397      1
   398   397   398      1
   399   397   399      1
   400   397   400      1
   401   398   401      1
   402   398   402      1
   403   398   403      1
   404   403   404      1
   405   403   405      1
   406   403   406      1
   407   404   407      1
   408   404   408      1
   409   404   409      1
   410   409   410      1
   411   409   411      1
   412   409   412      1
   413   410   413      1
   414   410   414      1
   415   410   415      1
   416   415   416      1
   417   415   417      1
   418   415   418      1
   419   416   419      1
   420   416   420      1
   421   416   421      1
   422   421   422      1
   423   421   423      1
   424   421   424      1
   425   422   425      1
   426   422   426      1
   427   422   427      1
   428   427   428      1
   429   427   429      1
   430   427   430      1
   431   428   431      1
   432   428   432      1
   433   428   433      1
   434   433   434      1
   435   433   435      1
   436   433   436      1
   437   434   437      1
   438   434   438      1
   439   434   439      1
   440   439   440      1
   441   439   441      1
   442   439   442      1
   443   440   443      1
   444   440   444      1
   445   440   445      1
   446   445   446      1
   447   445   447      1
   448   445   448      1
   449   446   449      1
   450   446   450      1
   451   446   451      1
   452   451   452      1
   453   451   453      1
   454   451   454      1
   455   452   455      1
   456   452   456      1
   457   452   457      1
   458   457   458      1
   459   457   459      1
   460   457   460      1
   461   458   461      1
   462   458   462      1
   463   458   463      1
   464   463   464      1
   465   463   465      1
   466   463   466      1
   467   464   467      1
   468   464   468      1
   469   464   469      1
   470   469   470      1
   471   469   471      1
   472   469   472      1
   473   470   473      1
   474   470   474      1
   475   470   475      1
   476   475   476      1
   477   475   477      1
   478   475   478      1
   479   476   479      1
   480   476   480      1
   481   476   481      1
   482   481   482      1
   483   481   483      1
   484   481   484      1
   485   482   485      1
   486   482   486      1
   487   482   487      1
   488   487   488      1
   489   487   489      1
   490   487   490      1
   491   488   491      1
   492   488   492      1
   493   488   493      1
   494   493   494      1
   495   493   495      1
   496   493   496      1
   497   494   497      1
   498   494   498      1
   499   494   499      1
   500   499   500      1
   501   499   501      1
   502   499   502      1
   503   500   503      1
   504   500   504      1
   505   500   505      1
   506   505   506      1
   507   505   507      1
   508   505   508      1
   509   506   509      1
   510   506   510      1
   511   506   511      1
   512   511   512      1
   513   511   513      1
   514   511   514      1
   515   512   515      1
   516   512   516      1
   517   512   517      1
   518   517   518      1
   519   517   519      1
   520   517   520      1
   521   518   521      1
   522   518   522      1
   523   518   523      1
   524   523   524      1
   525   523   525      1
   526   523   526      1
   527   524   527      1
   528   524   528      1
   529   524   529      1
   530   529   530      1
   531   529   531      1
   532   529   532      1
   533   530   533      1
   534   530   534      1
   535   530   535      1
   536   535   536      1
   537   535   537      1
   538   535   538      1
   539   536   539      1
   540   536   540      1
   541   536   541      1
   542   541   542      1
   543   541   543      1
   544   541   544      1
   545   542   545      1
   546   542   546      1
   547   542   547      1
   548   547   548      1
   549   547   549      1
   550   547   550      1
   551   548   551      1
   552   548   552      1
   553   548   553      1
   554   553   554      1
   555   553   555      1
   556   553   556      1
   557   554   557      1
   558   554   558      1
   559   554   559      1
   560   559   560      1
   561   559   561      1
   562   559   562      1
   563   560   563      1
   564   560   564      1
   565   560   565      1
   566   565   566      1
   567   565   567      1
   568   565   568      1
   569   566   569      1
   570   566   570      1
   571   566   571      1
   572   571   572      1
   573   571   573      1
   574   571   574      1
   575   572   575      1
   576   572   576      1
   577   572   577      1
   578   577   578      1
   579   577   579      1
   580   577   580      1
   581   578   581      1
   582   578   582      1
   583   578   583      1
   584   583   584      1
   585   583   585      1
   586   583   586      1
   587   584   587      1
   588   584   588      1
   589   584   589      1
   590   589   590      1
   591   589   591      1
   592   589   592      1
   593   590   593      1
   594   590   594      1
   595   590   595      1
   596   595   596      1
   597   595   597      1
   598   595   598      1
   599   596   599      1
   600   596   600      1
   601   596   601      1
   602   601   602      1
   603   601   603      1
   604   601   604      1
   605   602   605      1
   606   602   606      1
   607   602   607      1
   608   607   608      1
   609   607   609      1
   610   607   610      1
   611   608   611      1
   612   608   612      1
   613   608   613      1
   614   613   614      1
   615   613   615      1
   616   613   616      1
   617   614   617      1
   618   614   618      1
   619   614   619      1
   620   619   620      1
   621   619   621      1
   622   619   622      1
   623   620   623      1
   624   620   624      1
   625   620   625      1
   626   625   626      1
   627   625   627      1
   628   625   628      1
   629   626   629      1
   630   626   630      1
   631   626   631      1
   632   631   632      1
   633   631   633      1
   634   631   634      1
   635   632   635      1
   636   632   636      1
   637   632   637      1
   638   637   638      1
   639   637   639      1
   640   637   640      1
   641   638   641      1
   642   638   642      1
   643   638   643      1
   644   643   644      1
   645   643   645      1
   646   643   646      1
   647   644   647      1
   648   644   648      1
   649   644   649      1
   650   649   650      1
   651   649   651      1
   652   649   652      1
   653   650   653      1
   654   650   654      1
   655   650   655      1
   656   655   656      1
   657   655   657      1
   658   655   658      1
   659   656   659      1
   660   656   660      1
   661   656   661      1
   662   661   662      1
   663   661   663      1
   664   661   664      1
   665   662   665      1
   666   662   666      1
   667   662   667      1
   668   667   668      1
   669   667   669      1
   670   667   670      1
   671   668   671      1
   672   668   672      1
   673   668   673      1
   674   673   674      1
   675   673   675      1
   676   673   676      1
   677   674   677      1
   678   674   678      1
   679   674   679      1
   680   679   680      1
   681   679   681      1
   682   679   682      1
   683   680   683      1
   684   680   684      1
   685   680   685      1
   686   685   686      1
   687   685   687      1
   688   685   688      1
   689   686   689      1
   690   686   690      1
   691   686   691      1
   692   691   692      1
   693   691   693      1
   694   691   694      1
   695   692   695      1
   696   692   696      1
   697   692   697      1
   698   697   698      1
   699   697   699      1
   700   697   700      1
   701   698   701      1
   702   698   702      1
   703   698   703      1
   704   703   704      1
   705   703   705      1
   706   703   706      1
   707   704   707      1
   708   704   708      1
   709   704   709      1
   710   709   710      1
   711   709   711      1
   712   709   712      1
   713   710   713      1
   714   710   714      1
   715   710   715      1
   716   715   716      1
   717   715   717      1
   718   715   718      1
   719   716   719      1
   720   716   720      1
   721   716   721      1
   722   721   722      1
   723   721   723      1
   724   721   724      1
   725   722   725      1
   726   722   726      1
   727   722   727      1
   728   727   728      1
   729   727   729      1
   730   727   730      1
   731   728   731      1
   732   728   732      1
   733   728   733      1
   734   733   734      1
   735   733   735      1
   736   733   736      1
   737   734   737      1
   738   734   738      1
   739   734   739      1
   740   739   740      1
   741   739   741      1
   742   739   742      1
   743   740   743      1
   744   740   744      1
   745   740   745      1
   746   745   746      1
   747   745   747      1
   748   745   748      1
   749   746   749      1
   750   746   750      1
   751   746   751      1
   752   751   752      1
   753   751   753      1
   754   751   754      1
   755   752   755      1
   756   752   756      1
   757   752   757      1
   758   757   758      1
   759   757   759      1
   760   757   760      1
   761   758   761      1
   762   758   762      1
   763   758   763      1
   764   763   764      1
   765   763   765      1
   766   763   766      1
   767   764   767      1
   768   764   768      1
   769   764   769      1
   770   769   770      1
   771   769   771      1
   772   769   772      1
   773   770   773      1
   774   770   774      1
   775   770   775      1
   776   775   776      1
   777   775   777      1
   778   775   778      1
   779   776   779      1
   780   776   780      1
   781   776   781      1
   782   781   782      1
   783   781   783      1
   784   781   784      1
   785   782   785      1
   786   782   786      1
   787   782   787      1
   788   787   788      1
   789   787   789      1
   790   787   790      1
   791   788   791      1
   792   788   792      1
   793   788   793      1
   794   793   794      1
   795   793   795      1
   796   793   796      1
   797   794   797      1
   798   794   798      1
   799   794   799      1
   800   799   800      1
   801   799   801      1
   802   799   802      1
   803   800   803      1
   804   800   804      1
   805   800   805      1
   806   805   806      1
   807   805   807      1
   808   805   808      1
   809   806   809      1
   810   806   810      1
   811   806   811      1
   812   811   812      1
   813   811   813      1
   814   811   814      1
   815   812   815      1
   816   812   816      1
   817   812   817      1
   818   817   818      1
   819   817   819      1
   820   817   820      1
   821   818   821      1
   822   818   822      1
   823   818   823      1
   824   823   824      1
   825   823   825      1
   826   823   826      1
   827   824   827      1
   828   824   828      1
   829   824   829      1
   830   829   830      1
   831   829   831      1
   832   829   832      1
   833   830   833      1
   834   830   834      1
   835   830   835      1
   836   835   836      1
   837   835   837      1
   838   835   838      1
   839   836   839      1
   840   836   840      1
   841   836   841      1
   842   841   842      1
   843   841   843      1
   844   841   844      1
   845   842   845      1
   846   842   846      1
   847   842   847      1
   848   847   848      1
   849   847   849      1
   850   847   850      1
   851   848   851      1
   852   848   852      1
   853   848   853      1
   854   853   854      1
   855   853   855      1
   856   853   856      1
   857   854   857      1
   858   854   858      1
   859   854   859      1
   860   859   860      1
   861   859   861      1
   862   859   862      1
   863   860   863      1
   864   860   864      1
   865   860   865      1
   866   865   866      1
   867   865   867      1
   868   865   868      1
   869   866   869      1
   870   866   870      1
   871   866   871      1
   872   871   872      1
   873   871   873      1
   874   871   874      1
   875   872   875      1
   876   872   876      1
   877   872   877      1
   878   877   878      1
   879   877   879      1
   880   877   880      1
   881   878   881      1
   882   878   882      1
   883   878   883      1
   884   883   884      1
   885   883   885      1
   886   883   886      1
   887   884   887      1
   888   884   888      1
   889   884   889      1
   890   889   890      1
   891   889   891      1
   892   889   892      1
   893   890   893      1
   894   890   894      1
   895   890   895      1
   896   895   896      1
   897   895   897      1
   898   895   898      1
   899   896   899      1
   900   896   900      1
   901   896   901      1
   902   901   902      1
   903   901   903      1
   904   901   904      1
   905   902   905      1
   906   902   906      1
   907   902   907      1
   908   907   908      1
   909   907   909      1
   910   907   910      1
   911   908   911      1
   912   908   912      1
   913   908   913      1
   914   913   914      1
   915   913   915      1
   916   913   916      1
   917   914   917      1
   918   914   918      1
   919   914   919      1
   920   919   920      1
   921   919   921      1
   922   919   922      1
   923   920   923      1
   924   920   924      1
   925   920   925      1
   926   925   926      1
   927   925   927      1
   928   925   928      1
   929   926   929      1
   930   926   930      1
   931   926   931      1
   932   931   932      1
   933   931   933      1
   934   931   934      1
   935   932   935      1
   936   932   936      1
   937   932   937      1
   938   937   938      1
   939   937   939      1
   940   937   940      1
   941   938   941      1
   942   938   942      1
   943   938   943      1
   944   943   944      1
   945   943   945      1
   946   943   946      1
   947   944   947      1
   948   944   948      1
   949   944   949      1
   950   949   950      1
   951   949   951      1
   952   949   952      1
   953   950   953      1
   954   950   954      1
   955   950   955      1
   956   955   956      1
   957   955   957      1
   958   955   958      1
   959   956   959      1
   960   956   960      1
   961   956   961      1
   962   961   962      1
   963   961   963      1
   964   961   964      1
   965   962   965      1
   966   962   966      1
   967   962   967      1
   968   967   968      1
   969   967   969      1
   970   967   970      1
   971   968   971      1
   972   968   972      1
   973   968   973      1
   974   973   974      1
   975   973   975      1
   976   973   976      1
   977   974   977      1
   978   974   978      1
   979   974   979      1
   980   979   980      1
   981   979   981      1
   982   979   982      1
   983   980   983      1
   984   980   984      1
   985   980   985      1
   986   985   986      1
   987   985   987      1
   988   985   988      1
   989   986   989      1
   990   986   990      1
   991   986   991      1
   992   991   992      1
   993   991   993      1
   994   991   994      1
   995   992   995      1
   996   992   996      1
   997   992   997      1
   998   997   998      1
   999   997   999      1
  1000   997  1000      1
  1001   998  1001      1
  1002   998  1002      1
  1003   998  1003      1
  1004  1003  1004      1
  1005  1003  1005      1
  1006  1003  1006      1
  1007  1004  1007      1
  1008  1004  1008      1
  1009  1004  1009      1
  1010  1009  1010      1
  1011  1009  1011      1
  1012  1009  1012      1
  1013  1010  1013      1
  1014  1010  1014      1
  1015  1010  1015      1
  1016  1015  1016      1
  1017  1015  1017      1
  1018  1015  1018      1
  1019  1016  1019      1
  1020  1016  1020      1
  1021  1016  1021      1
  1022  1021  1022      1
  1023  1021  1023      1
  1024  1021  1024      1
  1025  1022  1025      1
  1026  1022  1026      1
  1027  1022  1027      1
  1028  1027  1028      1
  1029  1027  1029      1
  1030  1027  1030      1
  1031  1028  1031      1
  1032  1028  1032      1
  1033  1028  1033      1
  1034  1033  1034      1
  1035  1033  1035      1
  1036  1033  1036      1
  1037  1034  1037      1
  1038  1034  1038      1
  1039  1034  1039      1
  1040  1039  1040      1
  1041  1039  1041      1
  1042  1039  1042      1
  1043  1040  1043      1
  1044  1040  1044      1
  1045  1040  1045      1
  1046  1045  1046      1
  1047  1045  1047      1
  1048  1045  1048      1
  1049  1046  1049      1
  1050  1046  1050      1
  1051  1046  1051      1
  1052  1051  1052      1
  1053  1051  1053      1
  1054  1051  1054      1
  1055  1052  1055      1
  1056  1052  1056      1
  1057  1052  1057      1
  1058  1057  1058      1
  1059  1057  1059      1
  1060  1057  1060      1
  1061  1058  1061      1
  1062  1058  1062      1
  1063  1058  1063      1
  1064  1063  1064      1
  1065  1063  1065      1
  1066  1063  1066      1
  1067  1064  1067      1
  1068  1064  1068      1
  1069  1064  1069      1
  1070  1069  1070      1
  1071  1069  1071      1
  1072  1069  1072      1
  1073  1070  1073      1
  1074  1070  1074      1
  1075  1070  1075      1
  1076  1075  1076      1
  1077  1075  1077      1
  1078  1075  1078      1
  1079  1076  1079      1
  1080  1076  1080      1
  1081  1076  1081      1
  1082  1081  1082      1
  1083  1081  1083      1
  1084  1081  1084      1
  1085  1082  1085      1
  1086  1082  1086      1
  1087  1082  1087      1
  1088  1087  1088      1
  1089  1087  1089      1
  1090  1087  1090      1
  1091  1088  1091      1
  1092  1088  1092      1
  1093  1088  1093      1
  1094  1093  1094      1
  1095  1093  1095      1
  1096  1093  1096      1
  1097  1094  1097      1
  1098  1094  1098      1
  1099  1094  1099      1
  1100  1099  1100      1
  1101  1099  1101      1
  1102  1099  1102      1
  1103  1100  1103      1
  1104  1100  1104      1
  1105  1100  1105      1
  1106  1105  1106      1
  1107  1105  1107      1
  1108  1105  1108      1
  1109  1106  1109      1
  1110  1106  1110      1
  1111  1106  1111      1
  1112  1111  1112      1
  1113  1111  1113      1
  1114  1111  1114      1
  1115  1112  1115      1
  1116  1112  1116      1
  1117  1112  1117      1
  1118  1117  1118      1
  1119  1117  1119      1
  1120  1117  1120      1
  1121  1118  1121      1
  1122  1118  1122      1
  1123  1118  1123      1
  1124  1123  1124      1
  1125  1123  1125      1
  1126  1123  1126      1
  1127  1124  1127      1
  1128  1124  1128      1
  1129  1124  1129      1
  1130  1129  1130      1
  1131  1129  1131      1
  1132  1129  1132      1
  1133  1130  1133      1
  1134  1130  1134      1
  1135  1130  1135      1
  1136  1135  1136      1
  1137  1135  1137      1
  1138  1135  1138      1
  1139  1136  1139      1
  1140  1136  1140      1
  1141  1136  1141      1
  1142  1141  1142      1
  1143  1141  1143      1
  1144  1141  1144      1
  1145  1142  1145      1
  1146  1142  1146      1
  1147  1142  1147      1
  1148  1147  1148      1
  1149  1147  1149      1
  1150  1147  1150      1
  1151  1148  1151      1
  1152  1148  1152      1
  1153  1148  1153      1
  1154  1153  1154      1
  1155  1153  1155      1
  1156  1153  1156      1
  1157  1154  1157      1
  1158  1154  1158      1
  1159  1154  1159      1
  1160  1159  1160      1
  1161  1159  1161      1
  1162  1159  1162      1
  1163  1160  1163      1
  1164  1160  1164      1
  1165  1160  1165      1
  1166  1165  1166      1
  1167  1165  1167      1
  1168  1165  1168      1
  1169  1166  1169      1
  1170  1166  1170      1
  1171  1166  1171      1
  1172  1171  1172      1
  1173  1171  1173      1
  1174  1171  1174      1
  1175  1172  1175      1
  1176  1172  1176      1
  1177  1172  1177      1
  1178  1177  1178      1
  1179  1177  1179      1
  1180  1177  1180      1
  1181  1178  1181      1
  1182  1178  1182      1
  1183  1178  1183      1
  1184  1183  1184      1
  1185  1183  1185      1
  1186  1183  1186      1
  1187  1184  1187      1
  1188  1184  1188      1
  1189  1184  1189      1
  1190  1189  1190      1
  1191  1189  1191      1
  1192  1189  1192      1
  1193  1190  1193      1
  1194  1190  1194      1
  1195  1190  1195      1
  1196  1195  1196      1
  1197  1195  1197      1
  1198  1195  1198      1
  1199  1196  1199      1
  1200  1196  1200      1
  1201  1196  1201      1
  1202  1201  1202      1
  1203  1201  1203      1
  1204  1201  1204      1
  1205  1202  1205      1
  1206  1202  1206      1
  1207  1202  1207      1
  1208  1207  1208      1
  1209  1207  1209      1
  1210  1207  1210      1
  1211  1208  1211      1
  1212  1208  1212      1
  1213  1208  1213      1
  1214  1213  1214      1
  1215  1213  1215      1
  1216  1213  1216      1
  1217  1214  1217      1
  1218  1214  1218      1
  1219  1214  1219      1
  1220  1219  1220      1
  1221  1219  1221      1
  1222  1219  1222      1
  1223  1220  1223      1
  1224  1220  1224      1
  1225  1220  1225      1
  1226  1225  1226      1
  1227  1225  1227      1
  1228  1225  1228      1
  1229  1226  1229      1
  1230  1226  1230      1
  1231  1226  1231      1
  1232  1231  1232      1
  1233  1231  1233      1
  1234  1231  1234      1
  1235  1232  1235      1
  1236  1232  1236      1
  1237  1232  1237      1
  1238  1237  1238      1
  1239  1237  1239      1
  1240  1237  1240      1
  1241  1238  1241      1
  1242  1238  1242      1
  1243  1238  1243      1
  1244  1243  1244      1
  1245  1243  1245      1
  1246  1243  1246      1
  1247  1244  1247      1
  1248  1244  1248      1
  1249  1244  1249      1
  1250  1249  1250      1
  1251  1249  1251      1
  1252  1249  1252      1
  1253  1250  1253      1
  1254  1250  1254      1
  1255  1250  1255      1
  1256  1255  1256      1
  1257  1255  1257      1
  1258  1255  1258      1
  1259  1256  1259      1
  1260  1256  1260      1
  1261  1256  1261      1
  1262  1261  1262      1
  1263  1261  1263      1
  1264  1261  1264      1
  1265  1262  1265      1
  1266  1262  1266      1
  1267  1262  1267      1
  1268  1267  1268      1
  1269  1267  1269      1
  1270  1267  1270      1
  1271  1268  1271      1
  1272  1268  1272      1
  1273  1268  1273      1
  1274  1273  1274      1
  1275  1273  1275      1
  1276  1273  1276      1
  1277  1274  1277      1
  1278  1274  1278      1
  1279  1274  1279      1
  1280  1279  1280      1
  1281  1279  1281      1
  1282  1279  1282      1
  1283  1280  1283      1
  1284  1280  1284      1
  1285  1280  1285      1
  1286  1285  1286      1
  1287  1285  1287      1
  1288  1285  1288      1
  1289  1286  1289      1
  1290  1286  1290      1
  1291  1286  1291      1
  1292  1291  1292      1
  1293  1291  1293      1
  1294  1291  1294      1
  1295  1292  1295      1
  1296  1292  1296      1
  1297  1292  1297      1
  1298  1297  1298      1
  1299  1297  1299      1
  1300  1297  1300      1
  1301  1298  1301      1
  1302  1298  1302      1
  1303  1298  1303      1
  1304  1303  1304      1
  1305  1303  1305      1
  1306  1303  1306      1
  1307  1304  1307      1
  1308  1304  1308      1
  1309  1304  1309      1
  1310  1309  1310      1
  1311  1309  1311      1
  1312  1309  1312      1
  1313  1310  1313      1
  1314  1310  1314      1
  1315  1310  1315      1
  1316  1315  1316      1
  1317  1315  1317      1
  1318  1315  1318      1
  1319  1316  1319      1
  1320  1316  1320      1
  1321  1316  1321      1
  1322  1321  1322      1
  1323  1321  1323      1
  1324  1321  1324      1
  1325  1322  1325      1
  1326  1322  1326      1
  1327  1322  1327      1
  1328  1327  1328      1
  1329  1327  1329      1
  1330  1327  1330      1
  1331  1328  1331      1
  1332  1328  1332      1
  1333  1328  1333      1
  1334  1333  1334      1
  1335  1333  1335      1
  1336  1333  1336      1
  1337  1334  1337      1
  1338  1334  1338      1
  1339  1334  1339      1
  1340  1339  1340      1
  1341  1339  1341      1
  1342  1339  1342      1
  1343  1340  1343      1
  1344  1340  1344      1
  1345  1340  1345      1
  1346  1345  1346      1
  1347  1345  1347      1
  1348  1345  1348      1
  1349  1346  1349      1
  1350  1346  1350      1
  1351  1346  1351      1
  1352  1351  1352      1
  1353  1351  1353      1
  1354  1351  1354      1
  1355  1352  1355      1
  1356  1352  1356      1
  1357  1352  1357      1
  1358  1357  1358      1
  1359  1357  1359      1
  1360  1357  1360      1
  1361  1358  1361      1
  1362  1358  1362      1
  1363  1358  1363      1
  1364  1363  1364      1
  1365  1363  1365      1
  1366  1363  1366      1
  1367  1364  1367      1
  1368  1364  1368      1
  1369  1364  1369      1
  1370  1369  1370      1
  1371  1369  1371      1
  1372  1369  1372      1
  1373  1370  1373      1
  1374  1370  1374      1
  1375  1370  1375      1
  1376  1375  1376      1
  1377  1375  1377      1
  1378  1375  1378      1
  1379  1376  1379      1
  1380  1376  1380      1
  1381  1376  1381      1
  1382  1381  1382      1
  1383  1381  1383      1
  1384  1381  1384      1
  1385  1382  1385      1
  1386  1382  1386      1
  1387  1382  1387      1
  1388  1387  1388      1
  1389  1387  1389      1
  1390  1387  1390      1
  1391  1388  1391      1
  1392  1388  1392      1
  1393  1388  1393      1
  1394  1393  1394      1
  1395  1393  1395      1
  1396  1393  1396      1
  1397  1394  1397      1
  1398  1394  1398      1
  1399  1394  1399      1
  1400  1399  1400      1
  1401  1399  1401      1
  1402  1399  1402      1
  1403  1400  1403      1
  1404  1400  1404      1
  1405  1400  1405      1
  1406  1405  1406      1
  1407  1405  1407      1
  1408  1405  1408      1
  1409  1406  1409      1
  1410  1406  1410      1
  1411  1406  1411      1
  1412  1411  1412      1
  1413  1411  1413      1
  1414  1411  1414      1
  1415  1412  1415      1
  1416  1412  1416      1
  1417  1412  1417      1
  1418  1417  1418      1
  1419  1417  1419      1
  1420  1417  1420      1
  1421  1418  1421      1
  1422  1418  1422      1
  1423  1418  1423      1
  1424  1423  1424      1
  1425  1423  1425      1
  1426  1423  1426      1
  1427  1424  1427      1
  1428  1424  1428      1
  1429  1424  1429      1
  1430  1429  1430      1
  1431  1429  1431      1
  1432  1429  1432      1
  1433  1430  1433      1
  1434  1430  1434      1
  1435  1430  1435      1
  1436  1435  1436      1
  1437  1435  1437      1
  1438  1435  1438      1
  1439  1436  1439      1
  1440  1436  1440      1
  1441  1436  1441      1
  1442  1441  1442      1
  1443  1441  1443      1
  1444  1441  1444      1
  1445  1442  1445      1
  1446  1442  1446      1
  1447  1442  1447      1
  1448  1447  1448      1
  1449  1447  1449      1
  1450  1447  1450      1
  1451  1448  1451      1
  1452  1448  1452      1
  1453  1448  1453      1
  1454  1453  1454      1
  1455  1453  1455      1
  1456  1453  1456      1
  1457  1454  1457      1
  1458  1454  1458      1
  1459  1454  1459      1
  1460  1459  1460      1
  1461  1459  1461      1
  1462  1459  1462      1
  1463  1460  1463      1
  1464  1460  1464      1
  1465  1460  1465      1
  1466  1465  1466      1
  1467  1465  1467      1
  1468  1465  1468      1
  1469  1466  1469      1
  1470  1466  1470      1
  1471  1466  1471      1
  1472  1471  1472      1
  1473  1471  1473      1
  1474  1471  1474      1
  1475  1472  1475      1
  1476  1472  1476      1
  1477  1472  1477      1
  1478  1477  1478      1
  1479  1477  1479      1
  1480  1477  1480      1
  1481  1478  1481      1
  1482  1478  1482      1
  1483  1478  1483      1
  1484  1483  1484      1
  1485  1483  1485      1
  1486  1483  1486      1
  1487  1484  1487      1
  1488  1484  1488      1
  1489  1484  1489      1
  1490  1489  1490      1
  1491  1489  1491      1
  1492  1489  1492      1
  1493  1490  1493      1
  1494  1490  1494      1
  1495  1490  1495      1
  1496  1495  1496      1
  1497  1495  1497      1
  1498  1495  1498      1
  1499  1496  1499      1
  1500  1496  1500      1
  1501  1496  1501      1
  1502  1501  1502      1
  1503  1501  1503      1
  1504  1501  1504      1
  1505  1502  1505      1
  1506  1502  1506      1
  1507  1502  1507      1
  1508  1507  1508      1
  1509  1507  1509      1
  1510  1507  1510      1
  1511  1508  1511      1
  1512  1508  1512      1
  1513  1508  1513      1
  1514  1513  1514      1
  1515  1513  1515      1
  1516  1513  1516      1
  1517  1514  1517      1
  1518  1514  1518      1
  1519  1514  1519      1
  1520  1519  1520      1
  1521  1519  1521      1
  1522  1519  1522      1
  1523  1520  1523      1
  1524  1520  1524      1
  1525  1520  1525      1
  1526  1525  1526      1
  1527  1525  1527      1
  1528  1525  1528      1
  1529  1526  1529      1
  1530  1526  1530      1
  1531  1526  1531      1
  1532  1531  1532      1
  1533  1531  1533      1
  1534  1531  1534      1
  1535  1532  1535      1
  1536  1532  1536      1
  1537  1532  1537      1
  1538  1537  1538      1
  1539  1537  1539      1
  1540  1537  1540      1
  1541  1538  1541      1
  1542  1538  1542      1
  1543  1538  1543      1
  1544  1543  1544      1
  1545  1543  1545      1
  1546  1543  1546      1
  1547  1544  1547      1
  1548  1544  1548      1
  1549  1544  1549      1
  1550  1549  1550      1
  1551  1549  1551      1
  1552  1549  1552      1
  1553  1550  1553      1
  1554  1550  1554      1
  1555  1550  1555      1
  1556  1555  1556      1
  1557  1555  1557      1
  1558  1555  1558      1
  1559  1556  1559      1
  1560  1556  1560      1
  1561  1556  1561      1
  1562  1561  1562      1
  1563  1561  1563      1
  1564  1561  1564      1
  1565  1562  1565      1
  1566  1562  1566      1
  1567  1562  1567      1
  1568  1567  1568      1
  1569  1567  1569      1
  1570  1567  1570      1
  1571  1568  1571      1
  1572  1568  1572      1
  1573  1568  1573      1
  1574  1573  1574      1
  1575  1573  1575      1
  1576  1573  1576      1
  1577  1574  1577      1
  1578  1574  1578      1
  1579  1574  1579      1
  1580  1579  1580      1
  1581  1579  1581      1
  1582  1579  1582      1
  1583  1580  1583      1
  1584  1580  1584      1
  1585  1580  1585      1
  1586  1585  1586      1
  1587  1585  1587      1
  1588  1585  1588      1
  1589  1586  1589      1
  1590  1586  1590      1
  1591  1586  1591      1
  1592  1591  1592      1
  1593  1591  1593      1
  1594  1591  1594      1
  1595  1592  1595      1
  1596  1592  1596      1
  1597  1592  1597      1
  1598  1597  1598      1
  1599  1597  1599      1
  1600  1597  1600      1
  1601  1598  1601      1
  1602  1598  1602      1
  1603  1598  1603      1
  1604  1603  1604      1
  1605  1603  1605      1
  1606  1603  1606      1
  1607  1604  1607      1
  1608  1604  1608      1
  1609  1604  1609      1
  1610  1609  1610      1
  1611  1609  1611      1
  1612  1609  1612      1
  1613  1610  1613      1
  1614  1610  1614      1
  1615  1610  1615      1
  1616  1615  1616      1
  1617  1615  1617      1
  1618  1615  1618      1
  1619  1616  1619      1
  1620  1616  1620      1
  1621  1616  1621      1
  1622  1621  1622      1
  1623  1621  1623      1
  1624  1621  1624      1
  1625  1622  1625      1
  1626  1622  1626      1
  1627  1622  1627      1
  1628  1627  1628      1
  1629  1627  1629      1
  1630  1627  1630      1
  1631  1628  1631      1
  1632  1628  1632      1
  1633  1628  1633      1
  1634  1633  1634      1
  1635  1633  1635      1
  1636  1633  1636      1
  1637  1634  1637      1
  1638  1634  1638      1
  1639  1634  1639      1
  1640  1639  1640      1
  1641  1639  1641      1
  1642  1639  1642      1
  1643  1640  1643      1
  1644  1640  1644      1
  1645  1640  1645      1
  1646  1645  1646      1
  1647  1645  1647      1
  1648  1645  1648      1
  1649  1646  1649      1
  1650  1646  1650      1
  1651  1646  1651      1
  1652  1651  1652      1
  1653  1651  1653      1
  1654  1651  1654      1
  1655  1652  1655      1
  1656  1652  1656      1
  1657  1652  1657      1
  1658  1657  1658      1
  1659  1657  1659      1
  1660  1657  1660      1
  1661  1658  1661      1
  1662  1658  1662      1
  1663  1658  1663      1
  1664  1663  1664      1
  1665  1663  1665      1
  1666  1663  1666      1
  1667  1664  1667      1
  1668  1664  1668      1
  1669  1664  1669      1
  1670  1669  1670      1
  1671  1669  1671      1
  1672  1669  1672      1
  1673  1670  1673      1
  1674  1670  1674      1
  1675  1670  1675      1
  1676  1675  1676      1
  1677  1675  1677      1
  1678  1675  1678      1
  1679  1676  1679      1
  1680  1676  1680      1
  1681  1676  1681      1
  1682  1681  1682      1
  1683  1681  1683      1
  1684  1681  1684      1
  1685  1682  1685      1
  1686  1682  1686      1
  1687  1682  1687      1
  1688  1687  1688      1
  1689  1687  1689      1
  1690  1687  1690      1
  1691  1688  1691      1
  1692  1688  1692      1
  1693  1688  1693      1
  1694  1693  1694      1
  1695  1693  1695      1
  1696  1693  1696      1
  1697  1694  1697      1
  1698  1694  1698      1
  1699  1694  1699      1
  1700  1699  1700      1
  1701  1699  1701      1
  1702  1699  1702      1
  1703  1700  1703      1
  1704  1700  1704      1
  1705  1700  1705      1
  1706  1705  1706      1
  1707  1705  1707      1
  1708  1705  1708      1
  1709  1706  1709      1
  1710  1706  1710      1
  1711  1706  1711      1
  1712  1711  1712      1
  1713  1711  1713      1
  1714  1711  1714      1
  1715  1712  1715      1
  1716  1712  1716      1
  1717  1712  1717      1
  1718  1717  1718      1
  1719  1717  1719      1
  1720  1717  1720      1
  1721  1718  1721      1
  1722  1718  1722      1
  1723  1718  1723      1
  1724  1723  1724      1
  1725  1723  1725      1
  1726  1723  1726      1
  1727  1724  1727      1
  1728  1724  1728      1
  1729  1724  1729      1
  1730  1729  1730      1
  1731  1729  1731      1
  1732  1729  1732      1
  1733  1730  1733      1
  1734  1730  1734      1
  1735  1730  1735      1
  1736  1735  1736      1
  1737  1735  1737      1
  1738  1735  1738      1
  1739  1736  1739      1
  1740  1736  1740      1
  1741  1736  1741      1
  1742  1741  1742      1
  1743  1741  1743      1
  1744  1741  1744      1
  1745  1742  1745      1
  1746  1742  1746      1
  1747  1742  1747      1
  1748  1747  1748      1
  1749  1747  1749      1
  1750  1747  1750      1
  1751  1748  1751      1
  1752  1748  1752      1
  1753  1748  1753      1
  1754  1753  1754      1
  1755  1753  1755      1
  1756  1753  1756      1
  1757  1754  1757      1
  1758  1754  1758      1
  1759  1754  1759      1
  1760  1759  1760      1
  1761  1759  1761      1
  1762  1759  1762      1
  1763  1760  1763      1
  1764  1760  1764      1
  1765  1760  1765      1
  1766  1765  1766      1
  1767  1765  1767      1
  1768  1765  1768      1
  1769  1766  1769      1
  1770  1766  1770      1
  1771  1766  1771      1
  1772  1771  1772      1
  1773  1771  1773      1
  1774  1771  1774      1
  1775  1772  1775      1
  1776  1772  1776      1
  1777  1772  1777      1
  1778  1777  1778      1
  1779  1777  1779      1
  1780  1777  1780      1
  1781  1778  1781      1
  1782  1778  1782      1
  1783  1778  1783      1
  1784  1783  1784      1
  1785  1783  1785      1
  1786  1783  1786      1
  1787  1784  1787      1
  1788  1784  1788      1
  1789  1784  1789      1
  1790  1789  1790      1
  1791  1789  1791      1
  1792  1789  1792      1
  1793  1790  1793      1
  1794  1790  1794      1
  1795  1790  1795      1
  1796  1795  1796      1
  1797  1795  1797      1
  1798  1795  1798      1
  1799  1796  1799      1
  1800  1796  1800      1
  1801  1796  1801      1
  1802  1801  1802      1
  1803  1801  1803      1
  1804  1801  1804      1
  1805  1802  1805      1
  1806  1802  1806      1
  1807  1802  1807      1
  1808  1807  1808      1
  1809  1807  1809      1
  1810  1807  1810      1
  1811  1808  1811      1
  1812  1808  1812      1
  1813  1808  1813      1
  1814  1813  1814      1
  1815  1813  1815      1
  1816  1813  1816      1
  1817  1814  1817      1
  1818  1814  1818      1
  1819  1814  1819      1
  1820  1819  1820      1
  1821  1819  1821      1
  1822  1819  1822      1
  1823  1820  1823      1
  1824  1820  1824      1
  1825  1820  1825      1
  1826  1825  1826      1
  1827  1825  1827      1
  1828  1825  1828      1
  1829  1826  1829      1
  1830  1826  1830      1
  1831  1826  1831      1
  1832  1831  1832      1
  1833  1831  1833      1
  1834  1831  1834      1
  1835  1832  1835      1
  1836  1832  1836      1
  1837  1832  1837      1
  1838  1837  1838      1
  1839  1837  1839      1
  1840  1837  1840      1
  1841  1838  1841      1
  1842  1838  1842      1
  1843  1838  1843      1
  1844  1843  1844      1
  1845  1843  1845      1
  1846  1843  1846      1
  1847  1844  1847      1
  1848  1844  1848      1
  1849  1844  1849      1
  1850  1849  1850      1
  1851  1849  1851      1
  1852  1849  1852      1
  1853  1850  1853      1
  1854  1850  1854      1
  1855  1850  1855      1
  1856  1855  1856      1
  1857  1855  1857      1
  1858  1855  1858      1
  1859  1856  1859      1
  1860  1856  1860      1
  1861  1856  1861      1
  1862  1861  1862      1
  1863  1861  1863      1
  1864  1861  1864      1
  1865  1862  1865      1
  1866  1862  1866      1
  1867  1862  1867      1
  1868  1867  1868      1
  1869  1867  1869      1
  1870  1867  1870      1
  1871  1868  1871      1
  1872  1868  1872      1
  1873  1868  1873      1
  1874  1873  1874      1
  1875  1873  1875      1
  1876  1873  1876      1
  1877  1874  1877      1
  1878  1874  1878      1
  1879  1874  1879      1
  1880  1879  1880      1
  1881  1879  1881      1
  1882  1879  1882      1
  1883  1880  1883      1
  1884  1880  1884      1
  1885  1880  1885      1
  1886  1885  1886      1
  1887  1885  1887      1
  1888  1885  1888      1
  1889  1886  1889      1
  1890  1886  1890      1
  1891  1886  1891      1
  1892  1891  1892      1
  1893  1891  1893      1
  1894  1891  1894      1
  1895  1892  1895      1
  1896  1892  1896      1
  1897  1892  1897      1
  1898  1897  1898      1
  1899  1897  1899      1
  1900  1897  1900      1
  1901  1898  1901      1
  1902  1898  1902      1
  1903  1898  1903      1
  1904  1903  1904      1
  1905  1903  1905      1
  1906  1903  1906      1
  1907  1904  1907      1
  1908  1904  1908      1
  1909  1904  1909      1
  1910  1909  1910      1
  1911  1909  1911      1
  1912  1909  1912      1
  1913  1910  1913      1
  1914  1910  1914      1
  1915  1910  1915      1
  1916  1915  1916      1
  1917  1915  1917      1
  1918  1915  1918      1
  1919  1916  1919      1
  1920  1916  1920      1
  1921  1916  1921      1
  1922  1921  1922      1
  1923  1921  1923      1
  1924  1921  1924      1
  1925  1922  1925      1
  1926  1922  1926      1
  1927  1922  1927      1
  1928  1927  1928      1
  1929  1927  1929      1
  1930  1927  1930      1
  1931  1928  1931      1
  1932  1928  1932      1
  1933  1928  1933      1
  1934  1933  1934      1
  1935  1933  1935      1
  1936  1933  1936      1
  1937  1934  1937      1
  1938  1934  1938      1
  1939  1934  1939      1
  1940  1939  1940      1
  1941  1939  1941      1
  1942  1939  1942      1
  1943  1940  1943      1
  1944  1940  1944      1
  1945  1940  1945      1
  1946  1945  1946      1
  1947  1945  1947      1
  1948  1945  1948      1
  1949  1946  1949      1
  1950  1946  1950      1
  1951  1946  1951      1
  1952  1951  1952      1
  1953  1951  1953      1
  1954  1951  1954      1
  1955  1952  1955      1
  1956  1952  1956      1
  1957  1952  1957      1
  1958  1957  1958      1
  1959  1957  1959      1
  1960  1957  1960      1
  1961  1958  1961      1
  1962  1958  1962      1
  1963  1958  1963      1
  1964  1963  1964      1
  1965  1963  1965      1
  1966  1963  1966      1
  1967  1964  1967      1
  1968  1964  1968      1
  1969  1964  1969      1
  1970  1969  1970      1
  1971  1969  1971      1
  1972  1969  1972      1
  1973  1970  1973      1
  1974  1970  1974      1
  1975  1970  1975      1
  1976  1975  1976      1
  1977  1975  1977      1
  1978  1975  1978      1
  1979  1976  1979      1
  1980  1976  1980      1
  1981  1976  1981      1
  1982  1981  1982      1
  1983  1981  1983      1
  1984  1981  1984      1
  1985  1982  1985      1
  1986  1982  1986      1
  1987  1982  1987      1
  1988  1987  1988      1
  1989  1987  1989      1
  1990  1987  1990      1
  1991  1988  1991      1
  1992  1988  1992      1
  1993  1988  1993      1
  1994  1993  1994      1
  1995  1993  1995      1
  1996  1993  1996      1
  1997  1994  1997      1
  1998  1994  1998      1
  1999  1994  1999      1
  2000  1999  2000      1
  2001  1999  2001      1
  2002  1999  2002      1
  2003  2000  2003      1
  2004  2000  2004      1
  2005  2000  2005      1
  2006  2005  2006      1
  2007  2005  2007      1
  2008  2005  2008      1
  2009  2006  2009      1
  2010  2006  2010      1
  2011  2006  2011      1
  2012  2011  2012      1
  2013  2011  2013      1
  2014  2011  2014      1
  2015  2012  2015      1
  2016  2012  2016      1
  2017  2012  2017      1
  2018  2017  2018      1
  2019  2017  2019      1
  2020  2017  2020      1
  2021  2018  2021      1
  2022  2018  2022      1
  2023  2018  2023      1
  2024  2023  2024      1
  2025  2023  2025      1
  2026  2023  2026      1
  2027  2024  2027      1
  2028  2024  2028      1
  2029  2024  2029      1
  2030  2029  2030      1
  2031  2029  2031      1
  2032  2029  2032      1
  2033  2030  2033      1
  2034  2030  2034      1
  2035  2030  2035      1
  2036  2035  2036      1
  2037  2035  2037      1
  2038  2035  2038      1
  2039  2036  2039      1
  2040  2036  2040      1
  2041  2036  2041      1
  2042  2041  2042      1
  2043  2041  2043      1
  2044  2041  2044      1
  2045  2042  2045      1
  2046  2042  2046      1
  2047  2042  2047      1
  2048  2047  2048      1
  2049  2047  2049      1
  2050  2047  2050      1
  2051  2048  2051      1
  2052  2048  2052      1
  2053  2048  2053      1
  2054  2053  2054      1
  2055  2053  2055      1
  2056  2053  2056      1
  2057  2054  2057      1
  2058  2054  2058      1
  2059  2054  2059      1
  2060  2059  2060      1
  2061  2059  2061      1
  2062  2059  2062      1
  2063  2060  2063      1
  2064  2060  2064      1
  2065  2060  2065      1
  2066  2065  2066      1
  2067  2065  2067      1
  2068  2065  2068      1
  2069  2066  2069      1
  2070  2066  2070      1
  2071  2066  2071      1
  2072  2071  2072      1
  2073  2071  2073      1
  2074  2071  2074      1
  2075  2072  2075      1
  2076  2072  2076      1
  2077  2072  2077      1
  2078  2077  2078      1
  2079  2077  2079      1
  2080  2077  2080      1
  2081  2078  2081      1
  2082  2078  2082      1
  2083  2078  2083      1
  2084  2083  2084      1
  2085  2083  2085      1
  2086  2083  2086      1
  2087  2084  2087      1
  2088  2084  2088      1
  2089  2084  2089      1
  2090  2089  2090      1
  2091  2089  2091      1
  2092  2089  2092      1
  2093  2090  2093      1
  2094  2090  2094      1
  2095  2090  2095      1
  2096  2095  2096      1
  2097  2095  2097      1
  2098  2095  2098      1
  2099  2096  2099      1
  2100  2096  2100      1
  2101  2096  2101      1
  2102  2101  2102      1
  2103  2101  2103      1
  2104  2101  2104      1
  2105  2102  2105      1
  2106  2102  2106      1
  2107  2102  2107      1
  2108  2107  2108      1
  2109  2107  2109      1
  2110  2107  2110      1
  2111  2108  2111      1
  2112  2108  2112      1
  2113  2108  2113      1
  2114  2113  2114      1
  2115  2113  2115      1
  2116  2113  2116      1
  2117  2114  2117      1
  2118  2114  2118      1
  2119  2114  2119      1
  2120  2119  2120      1
  2121  2119  2121      1
  2122  2119  2122      1
  2123  2120  2123      1
  2124  2120  2124      1
  2125  2120  2125      1
  2126  2125  2126      1
  2127  2125  2127      1
  2128  2125  2128      1
  2129  2126  2129      1
  2130  2126  2130      1
  2131  2126  2131      1
  2132  2131  2132      1
  2133  2131  2133      1
  2134  2131  2134      1
  2135  2132  2135      1
  2136  2132  2136      1
  2137  2132  2137      1
  2138  2137  2138      1
  2139  2137  2139      1
  2140  2137  2140      1
  2141  2138  2141      1
  2142  2138  2142      1
  2143  2138  2143      1
  2144  2143  2144      1
  2145  2143  2145      1
  2146  2143  2146      1
  2147  2144  2147      1
  2148  2144  2148      1
  2149  2144  2149      1
  2150  2149  2150      1
  2151  2149  2151      1
  2152  2149  2152      1
  2153  2150  2153      1
  2154  2150  2154      1
  2155  2150  2155      1
  2156  2155  2156      1
  2157  2155  2157      1
  2158  2155  2158      1
  2159  2156  2159      1
  2160  2156  2160      1
  2161  2156  2161      1
  2162  2161  2162      1
  2163  2161  2163      1
  2164  2161  2164      1
  2165  2162  2165      1
  2166  2162  2166      1
  2167  2162  2167      1
  2168  2167  2168      1
  2169  2167  2169      1
  2170  2167  2170      1
  2171  2168  2171      1
  2172  2168  2172      1
  2173  2168  2173      1
  2174  2173  2174      1
  2175  2173  2175      1
  2176  2173  2176      1
  2177  2174  2177      1
  2178  2174  2178      1
  2179  2174  2179      1
  2180  2179  2180      1
  2181  2179  2181      1
  2182  2179  2182      1
  2183  2180  2183      1
  2184  2180  2184      1
  2185  2180  2185      1
  2186  2185  2186      1
  2187  2185  2187      1
  2188  2185  2188      1
  2189  2186  2189      1
  2190  2186  2190      1
  2191  2186  2191      1
  2192  2191  2192      1
  2193  2191  2193      1
  2194  2191  2194      1
  2195  2192  2195      1
  2196  2192  2196      1
  2197  2192  2197      1
  2198  2197  2198      1
  2199  2197  2199      1
  2200  2197  2200      1
  2201  2198  2201      1
  2202  2198  2202      1
  2203  2198  2203      1
  2204  2203  2204      1
  2205  2203  2205      1
  2206  2203  2206      1
  2207  2204  2207      1
  2208  2204  2208      1
  2209  2204  2209      1
  2210  2209  2210      1
  2211  2209  2211      1
  2212  2209  2212      1
  2213  2210  2213      1
  2214  2210  2214      1
  2215  2210  2215      1
  2216  2215  2216      1
  2217  2215  2217      1
  2218  2215  2218      1
  2219  2216  2219      1
  2220  2216  2220      1
  2221  2216  2221      1
  2222  2221  2222      1
  2223  2221  2223      1
  2224  2221  2224      1
  2225  2222  2225      1
  2226  2222  2226      1
  2227  2222  2227      1
  2228  2227  2228      1
  2229  2227  2229      1
  2230  2227  2230      1
  2231  2228  2231      1
  2232  2228  2232      1
  2233  2228  2233      1
  2234  2233  2234      1
  2235  2233  2235      1
  2236  2233  2236      1
  2237  2234  2237      1
  2238  2234  2238      1
  2239  2234  2239      1
  2240  2239  2240      1
  2241  2239  2241      1
  2242  2239  2242      1
  2243  2240  2243      1
  2244  2240  2244      1
  2245  2240  2245      1
  2246  2245  2246      1
  2247  2245  2247      1
  2248  2245  2248      1
  2249  2246  2249      1
  2250  2246  2250      1
  2251  2246  2251      1
  2252  2251  2252      1
  2253  2251  2253      1
  2254  2251  2254      1
  2255  2252  2255      1
  2256  2252  2256      1
  2257  2252  2257      1
  2258  2257  2258      1
  2259  2257  2259      1
  2260  2257  2260      1
  2261  2258  2261      1
  2262  2258  2262      1
  2263  2258  2263      1
  2264  2263  2264      1
  2265  2263  2265      1
  2266  2263  2266      1
  2267  2264  2267      1
  2268  2264  2268      1
  2269  2264  2269      1
  2270  2269  2270      1
  2271  2269  2271      1
  2272  2269  2272      1
  2273  2270  2273      1
  2274  2270  2274      1
  2275  2270  2275      1
  2276  2275  2276      1
  2277  2275  2277      1
  2278  2275  2278      1
  2279  2276  2279      1
  2280  2276  2280      1
  2281  2276  2281      1
  2282  2281  2282      1
  2283  2281  2283      1
  2284  2281  2284      1
  2285  2282  2285      1
  2286  2282  2286      1
  2287  2282  2287      1
  2288  2287  2288      1
  2289  2287  2289      1
  2290  2287  2290      1
  2291  2288  2291      1
  2292  2288  2292      1
  2293  2288  2293      1
  2294  2293  2294      1
  2295  2293  2295      1
  2296  2293  2296      1
  2297  2294  2297      1
  2298  2294  2298      1
  2299  2294  2299      1
  2300  2299  2300      1
  2301  2299  2301      1
  2302  2299  2302      1
  2303  2300  2303      1
  2304  2300  2304      1
  2305  2300  2305      1
  2306  2305  2306      1
  2307  2305  2307      1
  2308  2305  2308      1
  2309  2306  2309      1
  2310  2306  2310      1
  2311  2306  2311      1
  2312  2311  2312      1
  2313  2311  2313      1
  2314  2311  2314      1
  2315  2312  2315      1
  2316  2312  2316      1
  2317  2312  2317      1
  2318  2317  2318      1
  2319  2317  2319      1
  2320  2317  2320      1
  2321  2318  2321      1
  2322  2318  2322      1
  2323  2318  2323      1
  2324  2323  2324      1
  2325  2323  2325      1
  2326  2323  2326      1
  2327  2324  2327      1
  2328  2324  2328      1
  2329  2324  2329      1
  2330  2329  2330      1
  2331  2329  2331      1
  2332  2329  2332      1
  2333  2330  2333      1
  2334  2330  2334      1
  2335  2330  2335      1
  2336  2335  2336      1
  2337  2335  2337      1
  2338  2335  2338      1
  2339  2336  2339      1
  2340  2336  2340      1
  2341  2336  2341      1
  2342  2341  2342      1
  2343  2341  2343      1
  2344  2341  2344      1
  2345  2342  2345      1
  2346  2342  2346      1
  2347  2342  2347      1
  2348  2347  2348      1
  2349  2347  2349      1
  2350  2347  2350      1
  2351  2348  2351      1
  2352  2348  2352      1
  2353  2348  2353      1
  2354  2353  2354      1
  2355  2353  2355      1
  2356  2353  2356      1
  2357  2354  2357      1
  2358  2354  2358      1
  2359  2354  2359      1
  2360  2359  2360      1
  2361  2359  2361      1
  2362  2359  2362      1
  2363  2360  2363      1
  2364  2360  2364      1
  2365  2360  2365      1
  2366  2365  2366      1
  2367  2365  2367      1
  2368  2365  2368      1
  2369  2366  2369      1
  2370  2366  2370      1
  2371  2366  2371      1
  2372  2371  2372      1
  2373  2371  2373      1
  2374  2371  2374      1
  2375  2372  2375      1
  2376  2372  2376      1
  2377  2372  2377      1
  2378  2377  2378      1
  2379  2377  2379      1
  2380  2377  2380      1
  2381  2378  2381      1
  2382  2378  2382      1
  2383  2378  2383      1
  2384  2383  2384      1
  2385  2383  2385      1
  2386  2383  2386      1
  2387  2384  2387      1
  2388  2384  2388      1
  2389  2384  2389      1
  2390  2389  2390      1
  2391  2389  2391      1
  2392  2389  2392      1
  2393  2390  2393      1
  2394  2390  2394      1
  2395  2390  2395      1
  2396  2395  2396      1
  2397  2395  2397      1
  2398  2395  2398      1
  2399  2396  2399      1
  2400  2396  2400      1
  2401  2396  2401      1
  2402  2401  2402      1
  2403  2401  2403      1
  2404  2401  2404      1
  2405  2402  2405      1
  2406  2402  2406      1
  2407  2402  2407      1
  2408  2407  2408      1
  2409  2407  2409      1
  2410  2407  2410      1
  2411  2408  2411      1
  2412  2408  2412      1
  2413  2408  2413      1
  2414  2413  2414      1
  2415  2413  2415      1
  2416  2413  2416      1
  2417  2414  2417      1
  2418  2414  2418      1
  2419  2414  2419      1
  2420  2419  2420      1
  2421  2419  2421      1
  2422  2419  2422      1
  2423  2420  2423      1
  2424  2420  2424      1
  2425  2420  2425      1
  2426  2425  2426      1
  2427  2425  2427      1
  2428  2425  2428      1
  2429  2426  2429      1
  2430  2426  2430      1
  2431  2426  2431      1
  2432  2431  2432      1
  2433  2431  2433      1
  2434  2431  2434      1
  2435  2432  2435      1
  2436  2432  2436      1
  2437  2432  2437      1
  2438  2437  2438      1
  2439  2437  2439      1
  2440  2437  2440      1
  2441  2438  2441      1
  2442  2438  2442      1
  2443  2438  2443      1
  2444  2443  2444      1
  2445  2443  2445      1
  2446  2443  2446      1
  2447  2444  2447      1
  2448  2444  2448      1
  2449  2444  2449      1
  2450  2449  2450      1
  2451  2449  2451      1
  2452  2449  2452      1
  2453  2450  2453      1
  2454  2450  2454      1
  2455  2450  2455      1
  2456  2455  2456      1
  2457  2455  2457      1
  2458  2455  2458      1
  2459  2456  2459      1
  2460  2456  2460      1
  2461  2456  2461      1
  2462  2461  2462      1
  2463  2461  2463      1
  2464  2461  2464      1
  2465  2462  2465      1
  2466  2462  2466      1
  2467  2462  2467      1
  2468  2467  2468      1
  2469  2467  2469      1
  2470  2467  2470      1
  2471  2468  2471      1
  2472  2468  2472      1
  2473  2468  2473      1
  2474  2473  2474      1
  2475  2473  2475      1
  2476  2473  2476      1
  2477  2474  2477      1
  2478  2474  2478      1
  2479  2474  2479      1
  2480  2479  2480      1
  2481  2479  2481      1
  2482  2479  2482      1
  2483  2480  2483      1
  2484  2480  2484      1
  2485  2480  2485      1
  2486  2485  2486      1
  2487  2485  2487      1
  2488  2485  2488      1
  2489  2486  2489      1
  2490  2486  2490      1
  2491  2486  2491      1
  2492  2491  2492      1
  2493  2491  2493      1
  2494  2491  2494      1
  2495  2492  2495      1
  2496  2492  2496      1
  2497  2492  2497      1
  2498  2497  2498      1
  2499  2497  2499      1
  2500  2497  2500      1
  2501  2498  2501      1
  2502  2498  2502      1
  2503  2498  2503      1
  2504  2503  2504      1
  2505  2503  2505      1
  2506  2503  2506      1
  2507  2504  2507      1
  2508  2504  2508      1
  2509  2504  2509      1
  2510  2509  2510      1
  2511  2509  2511      1
  2512  2509  2512      1
  2513  2510  2513      1
  2514  2510  2514      1
  2515  2510  2515      1
  2516  2515  2516      1
  2517  2515  2517      1
  2518  2515  2518      1
  2519  2516  2519      1
  2520  2516  2520      1
  2521  2516  2521      1
  2522  2521  2522      1
  2523  2521  2523      1
  2524  2521  2524      1
  2525  2522  2525      1
  2526  2522  2526      1
  2527  2522  2527      1
  2528  2527  2528      1
  2529  2527  2529      1
  2530  2527  2530      1
  2531  2528  2531      1
  2532  2528  2532      1
  2533  2528  2533      1
  2534  2533  2534      1
  2535  2533  2535      1
  2536  2533  2536      1
  2537  2534  2537      1
  2538  2534  2538      1
  2539  2534  2539      1
  2540  2539  2540      1
  2541  2539  2541      1
  2542  2539  2542      1
  2543  2540  2543      1
  2544  2540  2544      1
  2545  2540  2545      1
  2546  2545  2546      1
  2547  2545  2547      1
  2548  2545  2548      1
  2549  2546  2549      1
  2550  2546  2550      1
  2551  2546  2551      1
  2552  2551  2552      1
  2553  2551  2553      1
  2554  2551  2554      1
  2555  2552  2555      1
  2556  2552  2556      1
  2557  2552  2557      1
  2558  2557  2558      1
  2559  2557  2559      1
  2560  2557  2560      1
  2561  2558  2561      1
  2562  2558  2562      1
  2563  2558  2563      1
  2564  2563  2564      1
  2565  2563  2565      1
  2566  2563  2566      1
  2567  2564  2567      1
  2568  2564  2568      1
  2569  2564  2569      1
  2570  2569  2570      1
  2571  2569  2571      1
  2572  2569  2572      1
  2573  2570  2573      1
  2574  2570  2574      1
  2575  2570  2575      1
  2576  2575  2576      1
  2577  2575  2577      1
  2578  2575  2578      1
  2579  2576  2579      1
  2580  2576  2580      1
  2581  2576  2581      1
  2582  2581  2582      1
  2583  2581  2583      1
  2584  2581  2584      1
  2585  2582  2585      1
  2586  2582  2586      1
  2587  2582  2587      1
  2588  2587  2588      1
  2589  2587  2589      1
  2590  2587  2590      1
  2591  2588  2591      1
  2592  2588  2592      1
  2593  2588  2593      1
  2594  2593  2594      1
  2595  2593  2595      1
  2596  2593  2596      1
  2597  2594  2597      1
  2598  2594  2598      1
  2599  2594  2599      1
  2600  2599  2600      1
  2601  2599  2601      1
  2602  2599  2602      1
  2603  2600  2603      1
  2604  2600  2604      1
  2605  2600  2605      1
  2606  2605  2606      1
  2607  2605  2607      1
  2608  2605  2608      1
  2609  2606  2609      1
  2610  2606  2610      1
  2611  2606  2611      1
  2612  2611  2612      1
  2613  2611  2613      1
  2614  2611  2614      1
  2615  2612  2615      1
  2616  2612  2616      1
  2617  2612  2617      1
  2618  2617  2618      1
  2619  2617  2619      1
  2620  2617  2620      1
  2621  2618  2621      1
  2622  2618  2622      1
  2623  2618  2623      1
  2624  2623  2624      1
  2625  2623  2625      1
  2626  2623  2626      1
  2627  2624  2627      1
  2628  2624  2628      1
  2629  2624  2629      1
  2630  2629  2630      1
  2631  2629  2631      1
  2632  2629  2632      1
  2633  2630  2633      1
  2634  2630  2634      1
  2635  2630  2635      1
  2636  2635  2636      1
  2637  2635  2637      1
  2638  2635  2638      1
  2639  2636  2639      1
  2640  2636  2640      1
  2641  2636  2641      1
  2642  2641  2642      1
  2643  2641  2643      1
  2644  2641  2644      1
  2645  2642  2645      1
  2646  2642  2646      1
  2647  2642  2647      1
  2648  2647  2648      1
  2649  2647  2649      1
  2650  2647  2650      1
  2651  2648  2651      1
  2652  2648  2652      1
  2653  2648  2653      1
  2654  2653  2654      1
  2655  2653  2655      1
  2656  2653  2656      1
  2657  2654  2657      1
  2658  2654  2658      1
  2659  2654  2659      1
  2660  2659  2660      1
  2661  2659  2661      1
  2662  2659  2662      1
  2663  2660  2663      1
  2664  2660  2664      1
  2665  2660  2665      1
  2666  2665  2666      1
  2667  2665  2667      1
  2668  2665  2668      1
  2669  2666  2669      1
  2670  2666  2670      1
  2671  2666  2671      1
  2672  2671  2672      1
  2673  2671  2673      1
  2674  2671  2674      1
  2675  2672  2675      1
  2676  2672  2676      1
  2677  2672  2677      1
  2678  2677  2678      1
  2679  2677  2679      1
  2680  2677  2680      1
  2681  2678  2681      1
  2682  2678  2682      1
  2683  2678  2683      1
  2684  2683  2684      1
  2685  2683  2685      1
  2686  2683  2686      1
  2687  2684  2687      1
  2688  2684  2688      1
  2689  2684  2689      1
  2690  2689  2690      1
  2691  2689  2691      1
  2692  2689  2692      1
  2693  2690  2693      1
  2694  2690  2694      1
  2695  2690  2695      1
  2696  2695  2696      1
  2697  2695  2697      1
  2698  2695  2698      1
  2699  2696  2699      1
  2700  2696  2700      1
  2701  2696  2701      1
  2702  2701  2702      1
  2703  2701  2703      1
  2704  2701  2704      1
  2705  2702  2705      1
  2706  2702  2706      1
  2707  2702  2707      1
  2708  2707  2708      1
  2709  2707  2709      1
  2710  2707  2710      1
  2711  2708  2711      1
  2712  2708  2712      1
  2713  2708  2713      1
  2714  2713  2714      1
  2715  2713  2715      1
  2716  2713  2716      1
  2717  2714  2717      1
  2718  2714  2718      1
  2719  2714  2719      1
  2720  2719  2720      1
  2721  2719  2721      1
  2722  2719  2722      1
  2723  2720  2723      1
  2724  2720  2724      1
  2725  2720  2725      1
  2726  2725  2726      1
  2727  2725  2727      1
  2728  2725  2728      1
  2729  2726  2729      1
  2730  2726  2730      1
  2731  2726  2731      1
  2732  2731  2732      1
  2733  2731  2733      1
  2734  2731  2734      1
  2735  2732  2735      1
  2736  2732  2736      1
  2737  2732  2737      1
  2738  2737  2738      1
  2739  2737  2739      1
  2740  2737  2740      1
  2741  2738  2741      1
  2742  2738  2742      1
  2743  2738  2743      1
  2744  2743  2744      1
  2745  2743  2745      1
  2746  2743  2746      1
  2747  2744  2747      1
  2748  2744  2748      1
  2749  2744  2749      1
  2750  2749  2750      1
  2751  2749  2751      1
  2752  2749  2752      1
  2753  2750  2753      1
  2754  2750  2754      1
  2755  2750  2755      1
  2756  2755  2756      1
  2757  2755  2757      1
  2758  2755  2758      1
  2759  2756  2759      1
  2760  2756  2760      1
  2761  2756  2761      1
  2762  2761  2762      1
  2763  2761  2763      1
  2764  2761  2764      1
  2765  2762  2765      1
  2766  2762  2766      1
  2767  2762  2767      1
  2768  2767  2768      1
  2769  2767  2769      1
  2770  2767  2770      1
  2771  2768  2771      1
  2772  2768  2772      1
  2773  2768  2773      1
  2774  2773  2774      1
  2775  2773  2775      1
  2776  2773  2776      1
  2777  2774  2777      1
  2778  2774  2778      1
  2779  2774  2779      1
  2780  2779  2780      1
  2781  2779  2781      1
  2782  2779  2782      1
  2783  2780  2783      1
  2784  2780  2784      1
  2785  2780  2785      1
  2786  2785  2786      1
  2787  2785  2787      1
  2788  2785  2788      1
  2789  2786  2789      1
  2790  2786  2790      1
  2791  2786  2791      1
  2792  2791  2792      1
  2793  2791  2793      1
  2794  2791  2794      1
  2795  2792  2795      1
  2796  2792  2796      1
  2797  2792  2797      1
  2798  2797  2798      1
  2799  2797  2799      1
  2800  2797  2800      1
  2801  2798  2801      1
  2802  2798  2802      1
  2803  2798  2803      1
  2804  2803  2804      1
  2805  2803  2805      1
  2806  2803  2806      1
  2807  2804  2807      1
  2808  2804  2808      1
  2809  2804  2809      1
  2810  2809  2810      1
  2811  2809  2811      1
  2812  2809  2812      1
  2813  2810  2813      1
  2814  2810  2814      1
  2815  2810  2815      1
  2816  2815  2816      1
  2817  2815  2817      1
  2818  2815  2818      1
  2819  2816  2819      1
  2820  2816  2820      1
  2821  2816  2821      1
  2822  2821  2822      1
  2823  2821  2823      1
  2824  2821  2824      1
  2825  2822  2825      1
  2826  2822  2826      1
  2827  2822  2827      1
  2828  2827  2828      1
  2829  2827  2829      1
  2830  2827  2830      1
  2831  2828  2831      1
  2832  2828  2832      1
  2833  2828  2833      1
  2834  2833  2834      1
  2835  2833  2835      1
  2836  2833  2836      1
  2837  2834  2837      1
  2838  2834  2838      1
  2839  2834  2839      1
  2840  2839  2840      1
  2841  2839  2841      1
  2842  2839  2842      1
  2843  2840  2843      1
  2844  2840  2844      1
  2845  2840  2845      1
  2846  2845  2846      1
  2847  2845  2847      1
  2848  2845  2848      1
  2849  2846  2849      1
  2850  2846  2850      1
  2851  2846  2851      1
  2852  2851  2852      1
  2853  2851  2853      1
  2854  2851  2854      1
  2855  2852  2855      1
  2856  2852  2856      1
  2857  2852  2857      1
  2858  2857  2858      1
  2859  2857  2859      1
  2860  2857  2860      1
  2861  2858  2861      1
  2862  2858  2862      1
  2863  2858  2863      1
  2864  2863  2864      1
  2865  2863  2865      1
  2866  2863  2866      1
  2867  2864  2867      1
  2868  2864  2868      1
  2869  2864  2869      1
  2870  2869  2870      1
  2871  2869  2871      1
  2872  2869  2872      1
  2873  2870  2873      1
  2874  2870  2874      1
  2875  2870  2875      1
  2876  2875  2876      1
  2877  2875  2877      1
  2878  2875  2878      1
  2879  2876  2879      1
  2880  2876  2880      1
  2881  2876  2881      1
  2882  2881  2882      1
  2883  2881  2883      1
  2884  2881  2884      1
  2885  2882  2885      1
  2886  2882  2886      1
  2887  2882  2887      1
  2888  2887  2888      1
  2889  2887  2889      1
  2890  2887  2890      1
  2891  2888  2891      1
  2892  2888  2892      1
  2893  2888  2893      1
  2894  2893  2894      1
  2895  2893  2895      1
  2896  2893  2896      1
  2897  2894  2897      1
  2898  2894  2898      1
  2899  2894  2899      1
  2900  2899  2900      1
  2901  2899  2901      1
  2902  2899  2902      1
  2903  2900  2903      1
  2904  2900  2904      1
  2905  2900  2905      1
  2906  2905  2906      1
  2907  2905  2907      1
  2908  2905  2908      1
  2909  2906  2909      1
  2910  2906  2910      1
  2911  2906  2911      1
  2912  2911  2912      1
  2913  2911  2913      1
  2914  2911  2914      1
  2915  2912  2915      1
  2916  2912  2916      1
  2917  2912  2917      1
  2918  2917  2918      1
  2919  2917  2919      1
  2920  2917  2920      1
  2921  2918  2921      1
  2922  2918  2922      1
  2923  2918  2923      1
  2924  2923  2924      1
  2925  2923  2925      1
  2926  2923  2926      1
  2927  2924  2927      1
  2928  2924  2928      1
  2929  2924  2929      1
  2930  2929  2930      1
  2931  2929  2931      1
  2932  2929  2932      1
  2933  2930  2933      1
  2934  2930  2934      1
  2935  2930  2935      1
  2936  2935  2936      1
  2937  2935  2937      1
  2938  2935  2938      1
  2939  2936  2939      1
  2940  2936  2940      1
  2941  2936  2941      1
  2942  2941  2942      1
  2943  2941  2943      1
  2944  2941  2944      1
  2945  2942  2945      1
  2946  2942  2946      1
  2947  2942  2947      1
  2948  2947  2948      1
  2949  2947  2949      1
  2950  2947  2950      1
  2951  2948  2951      1
  2952  2948  2952      1
  2953  2948  2953      1
  2954  2953  2954      1
  2955  2953  2955      1
  2956  2953  2956      1
  2957  2954  2957      1
  2958  2954  2958      1
  2959  2954  2959      1
  2960  2959  2960      1
  2961  2959  2961      1
  2962  2959  2962      1
  2963  2960  2963      1
  2964  2960  2964      1
  2965  2960  2965      1
  2966  2965  2966      1
  2967  2965  2967      1
  2968  2965  2968      1
  2969  2966  2969      1
  2970  2966  2970      1
  2971  2966  2971      1
  2972  2971  2972      1
  2973  2971  2973      1
  2974  2971  2974      1
  2975  2972  2975      1
  2976  2972  2976      1
  2977  2972  2977      1
  2978  2977  2978      1
  2979  2977  2979      1
  2980  2977  2980      1
  2981  2978  2981      1
  2982  2978  2982      1
  2983  2978  2983      1
  2984  2983  2984      1
  2985  2983  2985      1
  2986  2983  2986      1
  2987  2984  2987      1
  2988  2984  2988      1
  2989  2984  2989      1
  2990  2989  2990      1
  2991  2989  2991      1
  2992  2989  2992      1
  2993  2990  2993      1
  2994  2990  2994      1
  2995  2990  2995      1
  2996  2995  2996      1
  2997  2995  2997      1
  2998  2995  2998      1
  2999  2996  2999      1
  3000  2996  3000      1
  3001  2996  3001      1
  3002  3001  3002      1
  3003  3001  3003      1
  3004  3001  3004      1
  3005  3002  3005      1
  3006  3002  3006      1
  3007  3002  3007      1
  3008  3007  3008      1
  3009  3007  3009      1
  3010  3007  3010      1
  3011  3008  3011      1
  3012  3008  3012      1
  3013  3008  3013      1
  3014  3013  3014      1
  3015  3013  3015      1
  3016  3013  3016      1
  3017  3014  3017      1
  3018  3014  3018      1
  3019  3014  3019      1
  3020  3019  3020      1
  3021  3019  3021      1
  3022  3019  3022      1
  3023  3020  3023      1
  3024  3020  3024      1
  3025  3020  3025      1
  3026  3025  3026      1
  3027  3025  3027      1
  3028  3025  3028      1
  3029  3026  3029      1
  3030  3026  3030      1
  3031  3026  3031      1
  3032  3031  3032      1
  3033  3031  3033      1
  3034  3031  3034      1
  3035  3032  3035      1
  3036  3032  3036      1
  3037  3032  3037      1
  3038  3037  3038      1
  3039  3037  3039      1
  3040  3037  3040      1
  3041  3038  3041      1
  3042  3038  3042      1
  3043  3038  3043      1
  3044  3043  3044      1
  3045  3043  3045      1
  3046  3043  3046      1
  3047  3044  3047      1
  3048  3044  3048      1
  3049  3044  3049      1
  3050  3049  3050      1
  3051  3049  3051      1
  3052  3049  3052      1
  3053  3050  3053      1
  3054  3050  3054      1
  3055  3050  3055      1
  3056  3055  3056      1
  3057  3055  3057      1
  3058  3055  3058      1
  3059  3056  3059      1
  3060  3056  3060      1
  3061  3056  3061      1
  3062  3061  3062      1
  3063  3061  3063      1
  3064  3061  3064      1
  3065  3062  3065      1
  3066  3062  3066      1
  3067  3062  3067      1
  3068  3067  3068      1
  3069  3067  3069      1
  3070  3067  3070      1
  3071  3068  3071      1
  3072  3068  3072      1
  3073  3068  3073      1
  3074  3073  3074      1
  3075  3073  3075      1
  3076  3073  3076      1
  3077  3074  3077      1
  3078  3074  3078      1
  3079  3074  3079      1
  3080  3079  3080      1
  3081  3079  3081      1
  3082  3079  3082      1
  3083  3080  3083      1
  3084  3080  3084      1
  3085  3080  3085      1
  3086  3085  3086      1
  3087  3085  3087      1
  3088  3085  3088      1
  3089  3086  3089      1
  3090  3086  3090      1
  3091  3086  3091      1
  3092  3091  3092      1
  3093  3091  3093      1
  3094  3091  3094      1
  3095  3092  3095      1
  3096  3092  3096      1
  3097  3092  3097      1
  3098  3097  3098      1
  3099  3097  3099      1
  3100  3097  3100      1
  3101  3098  3101      1
  3102  3098  3102      1
  3103  3098  3103      1
  3104  3103  3104      1
  3105  3103  3105      1
  3106  3103  3106      1
  3107  3104  3107      1
  3108  3104  3108      1
  3109  3104  3109      1
  3110  3109  3110      1
  3111  3109  3111      1
  3112  3109  3112      1
  3113  3110  3113      1
  3114  3110  3114      1
  3115  3110  3115      1
  3116  3115  3116      1
  3117  3115  3117      1
  3118  3115  3118      1
  3119  3116  3119      1
  3120  3116  3120      1
  3121  3116  3121      1
  3122  3121  3122      1
  3123  3121  3123      1
  3124  3121  3124      1
  3125  3122  3125      1
  3126  3122  3126      1
  3127  3122  3127      1
  3128  3127  3128      1
  3129  3127  3129      1
  3130  3127  3130      1
  3131  3128  3131      1
  3132  3128  3132      1
  3133  3128  3133      1
  3134  3133  3134      1
  3135  3133  3135      1
  3136  3133  3136      1
  3137  3134  3137      1
  3138  3134  3138      1
  3139  3134  3139      1
  3140  3139  3140      1
  3141  3139  3141      1
  3142  3139  3142      1
  3143  3140  3143      1
  3144  3140  3144      1
  3145  3140  3145      1
  3146  3145  3146      1
  3147  3145  3147      1
  3148  3145  3148      1
  3149  3146  3149      1
  3150  3146  3150      1
  3151  3146  3151      1
  3152  3151  3152      1
  3153  3151  3153      1
  3154  3151  3154      1
  3155  3152  3155      1
  3156  3152  3156      1
  3157  3152  3157      1
  3158  3157  3158      1
  3159  3157  3159      1
  3160  3157  3160      1
  3161  3158  3161      1
  3162  3158  3162      1
  3163  3158  3163      1
  3164  3163  3164      1
  3165  3163  3165      1
  3166  3163  3166      1
  3167  3164  3167      1
  3168  3164  3168      1
  3169  3164  3169      1
  3170  3169  3170      1
  3171  3169  3171      1
  3172  3169  3172      1
  3173  3170  3173      1
  3174  3170  3174      1
  3175  3170  3175      1
  3176  3175  3176      1
  3177  3175  3177      1
  3178  3175  3178      1
  3179  3176  3179      1
  3180  3176  3180      1
  3181  3176  3181      1
  3182  3181  3182      1
  3183  3181  3183      1
  3184  3181  3184      1
  3185  3182  3185      1
  3186  3182  3186      1
  3187  3182  3187      1
  3188  3187  3188      1
  3189  3187  3189      1
  3190  3187  3190      1
  3191  3188  3191      1
  3192  3188  3192      1
  3193  3188  3193      1
  3194  3193  3194      1
  3195  3193  3195      1
  3196  3193  3196      1
  3197  3194  3197      1
  3198  3194  3198      1
  3199  3194  3199      1
  3200  3199  3200      1
  3201  3199  3201      1
  3202  3199  3202      1
  3203  3200  3203      1
  3204  3200  3204      1
  3205  3200  3205      1
  3206  3205  3206      1
  3207  3205  3207      1
  3208  3205  3208      1
  3209  3206  3209      1
  3210  3206  3210      1
  3211  3206  3211      1
  3212  3211  3212      1
  3213  3211  3213      1
  3214  3211  3214      1
  3215  3212  3215      1
  3216  3212  3216      1
  3217  3212  3217      1
  3218  3217  3218      1
  3219  3217  3219      1
  3220  3217  3220      1
  3221  3218  3221      1
  3222  3218  3222      1
  3223  3218  3223      1
  3224  3223  3224      1
  3225  3223  3225      1
  3226  3223  3226      1
  3227  3224  3227      1
  3228  3224  3228      1
  3229  3224  3229      1
  3230  3229  3230      1
  3231  3229  3231      1
  3232  3229  3232      1
  3233  3230  3233      1
  3234  3230  3234      1
  3235  3230  3235      1
  3236  3235  3236      1
  3237  3235  3237      1
  3238  3235  3238      1
  3239  3236  3239      1
  3240  3236  3240      1
  3241  3236  3241      1
  3242  3241  3242      1
  3243  3241  3243      1
  3244  3241  3244      1
  3245  3242  3245      1
  3246  3242  3246      1
  3247  3242  3247      1
  3248  3247  3248      1
  3249  3247  3249      1
  3250  3247  3250      1
  3251  3248  3251      1
  3252  3248  3252      1
  3253  3248  3253      1
  3254  3253  3254      1
  3255  3253  3255      1
  3256  3253  3256      1
  3257  3254  3257      1
  3258  3254  3258      1
  3259  3254  3259      1
  3260  3259  3260      1
  3261  3259  3261      1
  3262  3259  3262      1
  3263  3260  3263      1
  3264  3260  3264      1
  3265  3260  3265      1
  3266  3265  3266      1
  3267  3265  3267      1
  3268  3265  3268      1
  3269  3266  3269      1
  3270  3266  3270      1
  3271  3266  3271      1
  3272  3271  3272      1
  3273  3271  3273      1
  3274  3271  3274      1
  3275  3272  3275      1
  3276  3272  3276      1
  3277  3272  3277      1
  3278  3277  3278      1
  3279  3277  3279      1
  3280  3277  3280      1
  3281  3278  3281      1
  3282  3278  3282      1
  3283  3278  3283      1
  3284  3283  3284      1
  3285  3283  3285      1
  3286  3283  3286      1
  3287  3284  3287      1
  3288  3284  3288      1
  3289  3284  3289      1
  3290  3289  3290      1
  3291  3289  3291      1
  3292  3289  3292      1
  3293  3290  3293      1
  3294  3290  3294      1
  3295  3290  3295      1
  3296  3295  3296      1
  3297  3295  3297      1
  3298  3295  3298      1
  3299  3296  3299      1
  3300  3296  3300      1
  3301  3296  3301      1
  3302  3301  3302      1
  3303  3301  3303      1
  3304  3301  3304      1
  3305  3302  3305      1
  3306  3302  3306      1
  3307  3302  3307      1
  3308  3307  3308      1
  3309  3307  3309      1
  3310  3307  3310      1
  3311  3308  3311      1
  3312  3308  3312      1
  3313  3308  3313      1
  3314  3313  3314      1
  3315  3313  3315      1
  3316  3313  3316      1
  3317  3314  3317      1
  3318  3314  3318      1
  3319  3314  3319      1
  3320  3319  3320      1
  3321  3319  3321      1
  3322  3319  3322      1
  3323  3320  3323      1
  3324  3320  3324      1
  3325  3320  3325      1
  3326  3325  3326      1
  3327  3325  3327      1
  3328  3325  3328      1
  3329  3326  3329      1
  3330  3326  3330      1
  3331  3326  3331      1
  3332  3331  3332      1
  3333  3331  3333      1
  3334  3331  3334      1
  3335  3332  3335      1
  3336  3332  3336      1
  3337  3332  3337      1
  3338  3337  3338      1
  3339  3337  3339      1
  3340  3337  3340      1
  3341  3338  3341      1
  3342  3338  3342      1
  3343  3338  3343      1
  3344  3343  3344      1
  3345  3343  3345      1
  3346  3343  3346      1
  3347  3344  3347      1
  3348  3344  3348      1
  3349  3344  3349      1
  3350  3349  3350      1
  3351  3349  3351      1
  3352  3349  3352      1
  3353  3350  3353      1
  3354  3350  3354      1
  3355  3350  3355      1
  3356  3355  3356      1
  3357  3355  3357      1
  3358  3355  3358      1
  3359  3356  3359      1
  3360  3356  3360      1
  3361  3356  3361      1
  3362  3361  3362      1
  3363  3361  3363      1
  3364  3361  3364      1
  3365  3362  3365      1
  3366  3362  3366      1
  3367  3362  3367      1
  3368  3367  3368      1
  3369  3367  3369      1
  3370  3367  3370      1
  3371  3368  3371      1
  3372  3368  3372      1
  3373  3368  3373      1
  3374  3373  3374      1
  3375  3373  3375      1
  3376  3373  3376      1
  3377  3374  3377      1
  3378  3374  3378      1
  3379  3374  3379      1
  3380  3379  3380      1
  3381  3379  3381      1
  3382  3379  3382      1
  3383  3380  3383      1
  3384  3380  3384      1
  3385  3380  3385      1
  3386  3385  3386      1
  3387  3385  3387      1
  3388  3385  3388      1
  3389  3386  3389      1
  3390  3386  3390      1
  3391  3386  3391      1
  3392  3391  3392      1
  3393  3391  3393      1
  3394  3391  3394      1
  3395  3392  3395      1
  3396  3392  3396      1
  3397  3392  3397      1
  3398  3397  3398      1
  3399  3397  3399      1
  3400  3397  3400      1
  3401  3398  3401      1
  3402  3398  3402      1
  3403  3398  3403      1
  3404  3403  3404      1
  3405  3403  3405      1
  3406  3403  3406      1
  3407  3404  3407      1
  3408  3404  3408      1
  3409  3404  3409      1
  3410  3409  3410      1
  3411  3409  3411      1
  3412  3409  3412      1
  3413  3410  3413      1
  3414  3410  3414      1
  3415  3410  3415      1
  3416  3415  3416      1
  3417  3415  3417      1
  3418  3415  3418      1
  3419  3416  3419      1
  3420  3416  3420      1
  3421  3416  3421      1
  3422  3421  3422      1
  3423  3421  3423      1
  3424  3421  3424      1
  3425  3422  3425      1
  3426  3422  3426      1
  3427  3422  3427      1
  3428  3427  3428      1
  3429  3427  3429      1
  3430  3427  3430      1
  3431  3428  3431      1
  3432  3428  3432      1
  3433  3428  3433      1
  3434  3433  3434      1
  3435  3433  3435      1
  3436  3433  3436      1
  3437  3434  3437      1
  3438  3434  3438      1
  3439  3434  3439      1
  3440  3439  3440      1
  3441  3439  3441      1
  3442  3439  3442      1
  3443  3440  3443      1
  3444  3440  3444      1
  3445  3440  3445      1
  3446  3445  3446      1
  3447  3445  3447      1
  3448  3445  3448      1
  3449  3446  3449      1
  3450  3446  3450      1
  3451  3446  3451      1
  3452  3451  3452      1
  3453  3451  3453      1
  3454  3451  3454      1
  3455  3452  3455      1
  3456  3452  3456      1
  3457  3452  3457      1
  3458  3457  3458      1
  3459  3457  3459      1
  3460  3457  3460      1
  3461  3458  3461      1
  3462  3458  3462      1
  3463  3458  3463      1
  3464  3463  3464      1
  3465  3463  3465      1
  3466  3463  3466      1
  3467  3464  3467      1
  3468  3464  3468      1
  3469  3464  3469      1
  3470  3469  3470      1
  3471  3469  3471      1
  3472  3469  3472      1
  3473  3470  3473      1
  3474  3470  3474      1
  3475  3470  3475      1
  3476  3475  3476      1
  3477  3475  3477      1
  3478  3475  3478      1
  3479  3476  3479      1
  3480  3476  3480      1
  3481  3476  3481      1
  3482  3481  3482      1
  3483  3481  3483      1
  3484  3481  3484      1
  3485  3482  3485      1
  3486  3482  3486      1
  3487  3482  3487      1
  3488  3487  3488      1
  3489  3487  3489      1
  3490  3487  3490      1
  3491  3488  3491      1
  3492  3488  3492      1
  3493  3488  3493      1
  3494  3493  3494      1
  3495  3493  3495      1
  3496  3493  3496      1
  3497  3494  3497      1
  3498  3494  3498      1
  3499  3494  3499      1
  3500  3499  3500      1
  3501  3499  3501      1
  3502  3499  3502      1
  3503  3500  3503      1
  3504  3500  3504      1
  3505  3500  3505      1
  3506  3505  3506      1
  3507  3505  3507      1
  3508  3505  3508      1
  3509  3506  3509      1
  3510  3506  3510      1
  3511  3506  3511      1
  3512  3511  3512      1
  3513  3511  3513      1
  3514  3511  3514      1
  3515  3512  3515      1
  3516  3512  3516      1
  3517  3512  3517      1
  3518  3517  3518      1
  3519  3517  3519      1
  3520  3517  3520      1
  3521  3518  3521      1
  3522  3518  3522      1
  3523  3518  3523      1
  3524  3523  3524      1
  3525  3523  3525      1
  3526  3523  3526      1
  3527  3524  3527      1
  3528  3524  3528      1
  3529  3524  3529      1
  3530  3529  3530      1
  3531  3529  3531      1
  3532  3529  3532      1
  3533  3530  3533      1
  3534  3530  3534      1
  3535  3530  3535      1
  3536  3535  3536      1
  3537  3535  3537      1
  3538  3535  3538      1
  3539  3536  3539      1
  3540  3536  3540      1
  3541  3536  3541      1
  3542  3541  3542      1
  3543  3541  3543      1
  3544  3541  3544      1
  3545  3542  3545      1
  3546  3542  3546      1
  3547  3542  3547      1
  3548  3547  3548      1
  3549  3547  3549      1
  3550  3547  3550      1
  3551  3548  3551      1
  3552  3548  3552      1
  3553  3548  3553      1
  3554  3553  3554      1
  3555  3553  3555      1
  3556  3553  3556      1
  3557  3554  3557      1
  3558  3554  3558      1
  3559  3554  3559      1
  3560  3559  3560      1
  3561  3559  3561      1
  3562  3559  3562      1
  3563  3560  3563      1
  3564  3560  3564      1
  3565  3560  3565      1
  3566  3565  3566      1
  3567  3565  3567      1
  3568  3565  3568      1
  3569  3566  3569      1
  3570  3566  3570      1
  3571  3566  3571      1
  3572  3571  3572      1
  3573  3571  3573      1
  3574  3571  3574      1
  3575  3572  3575      1
  3576  3572  3576      1
  3577  3572  3577      1
  3578  3577  3578      1
  3579  3577  3579      1
  3580  3577  3580      1
  3581  3578  3581      1
  3582  3578  3582      1
  3583  3578  3583      1
  3584  3583  3584      1
  3585  3583  3585      1
  3586  3583  3586      1
  3587  3584  3587      1
  3588  3584  3588      1
  3589  3584  3589      1
  3590  3589  3590      1
  3591  3589  3591      1
  3592  3589  3592      1
  3593  3590  3593      1
  3594  3590  3594      1
  3595  3590  3595      1
  3596  3595  3596      1
  3597  3595  3597      1
  3598  3595  3598      1
  3599  3596  3599      1
  3600  3596  3600      1
  3601  3596  3601      1
  3602  3601  3602      1
  3603  3601  3603      1
  3604  3601  3604      1
  3605  3602  3605      1
  3606  3602  3606      1
  3607  3602  3607      1
  3608  3607  3608      1
  3609  3607  3609      1
  3610  3607  3610      1
  3611  3608  3611      1
  3612  3608  3612      1
  3613  3608  3613      1
  3614  3613  3614      1
  3615  3613  3615      1
  3616  3613  3616      1
  3617  3614  3617      1
  3618  3614  3618      1
  3619  3614  3619      1
  3620  3619  3620      1
  3621  3619  3621      1
  3622  3619  3622      1
  3623  3620  3623      1
  3624  3620  3624      1
  3625  3620  3625      1
  3626  3625  3626      1
  3627  3625  3627      1
  3628  3625  3628      1
  3629  3626  3629      1
  3630  3626  3630      1
  3631  3626  3631      1
  3632  3631  3632      1
  3633  3631  3633      1
  3634  3631  3634      1
  3635  3632  3635      1
  3636  3632  3636      1
  3637  3632  3637      1
  3638  3637  3638      1
  3639  3637  3639      1
  3640  3637  3640      1
  3641  3638  3641      1
  3642  3638  3642      1
  3643  3638  3643      1
  3644  3643  3644      1
  3645  3643  3645      1
  3646  3643  3646      1
  3647  3644  3647      1
  3648  3644  3648      1
  3649  3644  3649      1
  3650  3649  3650      1
  3651  3649  3651      1
  3652  3649  3652      1
  3653  3650  3653      1
  3654  3650  3654      1
  3655  3650  3655      1
  3656  3655  3656      1
  3657  3655  3657      1
  3658  3655  3658      1
  3659  3656  3659      1
  3660  3656  3660      1
  3661  3656  3661      1
  3662  3661  3662      1
  3663  3661  3663      1
  3664  3661  3664      1
  3665  3662  3665      1
  3666  3662  3666      1
  3667  3662  3667      1
  3668  3667  3668      1
  3669  3667  3669      1
  3670  3667  3670      1
  3671  3668  3671      1
  3672  3668  3672      1
  3673  3668  3673      1
  3674  3673  3674      1
  3675  3673  3675      1
  3676  3673  3676      1
  3677  3674  3677      1
  3678  3674  3678      1
  3679  3674  3679      1
  3680  3679  3680      1
  3681  3679  3681      1
  3682  3679  3682      1
  3683  3680  3683      1
  3684  3680  3684      1
  3685  3680  3685      1
  3686  3685  3686      1
  3687  3685  3687      1
  3688  3685  3688      1
  3689  3686  3689      1
  3690  3686  3690      1
  3691  3686  3691      1
  3692  3691  3692      1
  3693  3691  3693      1
  3694  3691  3694      1
  3695  3692  3695      1
  3696  3692  3696      1
  3697  3692  3697      1
  3698  3697  3698      1
  3699  3697  3699      1
  3700  3697  3700      1
  3701  3698  3701      1
  3702  3698  3702      1
  3703  3698  3703      1
  3704  3703  3704      1
  3705  3703  3705      1
  3706  3703  3706      1
  3707  3704  3707      1
  3708  3704  3708      1
  3709  3704  3709      1
  3710  3709  3710      1
  3711  3709  3711      1
  3712  3709  3712      1
  3713  3710  3713      1
  3714  3710  3714      1
  3715  3710  3715      1
  3716  3715  3716      1
  3717  3715  3717      1
  3718  3715  3718      1
  3719  3716  3719      1
  3720  3716  3720      1
  3721  3716  3721      1
  3722  3721  3722      1
  3723  3721  3723      1
  3724  3721  3724      1
  3725  3722  3725      1
  3726  3722  3726      1
  3727  3722  3727      1
  3728  3727  3728      1
  3729  3727  3729      1
  3730  3727  3730      1
  3731  3728  3731      1
  3732  3728  3732      1
  3733  3728  3733      1
  3734  3733  3734      1
  3735  3733  3735      1
  3736  3733  3736      1
  3737  3734  3737      1
  3738  3734  3738      1
  3739  3734  3739      1
  3740  3739  3740      1
  3741  3739  3741      1
  3742  3739  3742      1
  3743  3740  3743      1
  3744  3740  3744      1
  3745  3740  3745      1
  3746  3745  3746      1
  3747  3745  3747      1
  3748  3745  3748      1
  3749  3746  3749      1
  3750  3746  3750      1
  3751  3746  3751      1
  3752  3751  3752      1
  3753  3751  3753      1
  3754  3751  3754      1
  3755  3752  3755      1
  3756  3752  3756      1
  3757  3752  3757      1
  3758  3757  3758      1
  3759  3757  3759      1
  3760  3757  3760      1
  3761  3758  3761      1
  3762  3758  3762      1
  3763  3758  3763      1
  3764  3763  3764      1
  3765  3763  3765      1
  3766  3763  3766      1
  3767  3764  3767      1
  3768  3764  3768      1
  3769  3764  3769      1
  3770  3769  3770      1
  3771  3769  3771      1
  3772  3769  3772      1
  3773  3770  3773      1
  3774  3770  3774      1
  3775  3770  3775      1
  3776  3775  3776      1
  3777  3775  3777      1
  3778  3775  3778      1
  3779  3776  3779      1
  3780  3776  3780      1
  3781  3776  3781      1
  3782  3781  3782      1
  3783  3781  3783      1
  3784  3781  3784      1
  3785  3782  3785      1
  3786  3782  3786      1
  3787  3782  3787      1
  3788  3787  3788      1
  3789  3787  3789      1
  3790  3787  3790      1
  3791  3788  3791      1
  3792  3788  3792      1
  3793  3788  3793      1
  3794  3793  3794      1
  3795  3793  3795      1
  3796  3793  3796      1
  3797  3794  3797      1
  3798  3794  3798      1
  3799  3794  3799      1
  3800  3799  3800      1
  3801  3799  3801      1
  3802  3799  3802      1
  3803  3800  3803      1
  3804  3800  3804      1
  3805  3800  3805      1
  3806  3805  3806      1
  3807  3805  3807      1
  3808  3805  3808      1
  3809  3806  3809      1
  3810  3806  3810      1
  3811  3806  3811      1
  3812  3811  3812      1
  3813  3811  3813      1
  3814  3811  3814      1
  3815  3812  3815      1
  3816  3812  3816      1
  3817  3812  3817      1
  3818  3817  3818      1
  3819  3817  3819      1
  3820  3817  3820      1
  3821  3818  3821      1
  3822  3818  3822      1
  3823  3818  3823      1
  3824  3823  3824      1
  3825  3823  3825      1
  3826  3823  3826      1
  3827  3824  3827      1
  3828  3824  3828      1
  3829  3824  3829      1
  3830  3829  3830      1
  3831  3829  3831      1
  3832  3829  3832      1
  3833  3830  3833      1
  3834  3830  3834      1
  3835  3830  3835      1
  3836  3835  3836      1
  3837  3835  3837      1
  3838  3835  3838      1
  3839  3836  3839      1
  3840  3836  3840      1
  3841  3836  3841      1
  3842  3841  3842      1
  3843  3841  3843      1
  3844  3841  3844      1
  3845  3842  3845      1
  3846  3842  3846      1
  3847  3842  3847      1
  3848  3847  3848      1
  3849  3847  3849      1
  3850  3847  3850      1
  3851  3848  3851      1
  3852  3848  3852      1
  3853  3848  3853      1
  3854  3853  3854      1
  3855  3853  3855      1
  3856  3853  3856      1
  3857  3854  3857      1
  3858  3854  3858      1
  3859  3854  3859      1
  3860  3859  3860      1
  3861  3859  3861      1
  3862  3859  3862      1
  3863  3860  3863      1
  3864  3860  3864      1
  3865  3860  3865      1
  3866  3865  3866      1
  3867  3865  3867      1
  3868  3865  3868      1
  3869  3866  3869      1
  3870  3866  3870      1
  3871  3866  3871      1
  3872  3871  3872      1
  3873  3871  3873      1
  3874  3871  3874      1
  3875  3872  3875      1
  3876  3872  3876      1
  3877  3872  3877      1
  3878  3877  3878      1
  3879  3877  3879      1
  3880  3877  3880      1
  3881  3878  3881      1
  3882  3878  3882      1
  3883  3878  3883      1
  3884  3883  3884      1
  3885  3883  3885      1
  3886  3883  3886      1
  3887  3884  3887      1
  3888  3884  3888      1
  3889  3884  3889      1
  3890  3889  3890      1
  3891  3889  3891      1
  3892  3889  3892      1
  3893  3890  3893      1
  3894  3890  3894      1
  3895  3890  3895      1
  3896  3895  3896      1
  3897  3895  3897      1
  3898  3895  3898      1
  3899  3896  3899      1
  3900  3896  3900      1
  3901  3896  3901      1
  3902  3901  3902      1
  3903  3901  3903      1
  3904  3901  3904      1
  3905  3902  3905      1
  3906  3902  3906      1
  3907  3902  3907      1
  3908  3907  3908      1
  3909  3907  3909      1
  3910  3907  3910      1
  3911  3908  3911      1
  3912  3908  3912      1
  3913  3908  3913      1
  3914  3913  3914      1
  3915  3913  3915      1
  3916  3913  3916      1
  3917  3914  3917      1
  3918  3914  3918      1
  3919  3914  3919      1
  3920  3919  3920      1
  3921  3919  3921      1
  3922  3919  3922      1
  3923  3920  3923      1
  3924  3920  3924      1
  3925  3920  3925      1
  3926  3925  3926      1
  3927  3925  3927      1
  3928  3925  3928      1
  3929  3926  3929      1
  3930  3926  3930      1
  3931  3926  3931      1
  3932  3931  3932      1
  3933  3931  3933      1
  3934  3931  3934      1
  3935  3932  3935      1
  3936  3932  3936      1
  3937  3932  3937      1
  3938  3937  3938      1
  3939  3937  3939      1
  3940  3937  3940      1
  3941  3938  3941      1
  3942  3938  3942      1
  3943  3938  3943      1
  3944  3943  3944      1
  3945  3943  3945      1
  3946  3943  3946      1
  3947  3944  3947      1
  3948  3944  3948      1
  3949  3944  3949      H
