###
### Created by PolyChef-cpp17 on Tue Feb 11 14:30:46 2025
###

@<TRIPOS>MOLECULE
NO_INFO
17966 17965 1 0 0
SMALL
USER_CHARGES


@<TRIPOS>ATOM
      1 C          -0.7202    1.2287    0.6551 C.3       0        0    0.0000
      2 C          -0.1377    2.5769    1.0933 C.3       0        0    0.0000
      3 H          -0.3676    0.4320    1.3217 H         0        0    0.0000
      4 H          -0.3669    0.9759   -0.3523 H         0        0    0.0000
      5 H          -0.5770    3.3875    0.4988 H         0        0    0.0000
      6 H          -0.3985    2.7769    2.1400 H         0        0    0.0000
      7 C           1.4218    2.6275    0.9425 C.3       1        0    0.0000
      8 C           2.0151    1.2612    0.5815 C.3       1        0    0.0000
      9 H           1.6788    3.3647    0.1718 H         1        0    0.0000
     10 H           1.8564    2.9899    1.8824 H         1        0    0.0000
     11 H           1.7716    0.5278    1.3602 H         1        0    0.0000
     12 H           1.5689    0.8916   -0.3500 H         1        0    0.0000
     13 C           3.5722    1.3166    0.4088 C.3       2        0    0.0000
     14 C           4.1630   -0.0449    0.0263 C.3       2        0    0.0000
     15 H           3.8166    2.0616   -0.3586 H         2        0    0.0000
     16 H           4.0196    1.6710    1.3457 H         2        0    0.0000
     17 H           3.8849   -0.7988    0.7732 H         2        0    0.0000
     18 H           3.7452   -0.3808   -0.9309 H         2        0    0.0000
     19 C           5.7256   -0.0026   -0.0914 C.3       3        0    0.0000
     20 C           6.3873   -1.2477    0.5093 C.3       3        0    0.0000
     21 H           5.9980    0.0946   -1.1496 H         3        0    0.0000
     22 H           6.0939    0.8994    0.4128 H         3        0    0.0000
     23 H           6.1586   -1.3157    1.5801 H         3        0    0.0000
     24 H           5.9797   -2.1528    0.0421 H         3        0    0.0000
     25 C           7.9440   -1.2409    0.3246 C.3       4        0    0.0000
     26 C           8.6857   -1.0557    1.6529 C.3       4        0    0.0000
     27 H           8.2481   -2.1832   -0.1479 H         4        0    0.0000
     28 H           8.2139   -0.4377   -0.3722 H         4        0    0.0000
     29 H           8.6686    0.0004    1.9492 H         4        0    0.0000
     30 H           8.1776   -1.6144    2.4486 H         4        0    0.0000
     31 C          10.1765   -1.5339    1.5726 C.3       5        0    0.0000
     32 C          11.0924   -0.4774    0.9450 C.3       5        0    0.0000
     33 H          10.5238   -1.7801    2.5837 H         5        0    0.0000
     34 H          10.2191   -2.4625    0.9900 H         5        0    0.0000
     35 H          10.4987    0.2344    0.3581 H         5        0    0.0000
     36 H          11.5920    0.1022    1.7312 H         5        0    0.0000
     37 C          12.1829   -1.1131    0.0155 C.3       6        0    0.0000
     38 C          13.5142   -0.3563    0.0802 C.3       6        0    0.0000
     39 H          12.3307   -2.1599    0.3084 H         6        0    0.0000
     40 H          11.8064   -1.1244   -1.0149 H         6        0    0.0000
     41 H          13.5856    0.3513   -0.7551 H         6        0    0.0000
     42 H          13.5650    0.2374    1.0013 H         6        0    0.0000
     43 C          14.7489   -1.3210    0.0321 C.3       7        0    0.0000
     44 C          16.0634   -0.5981    0.3461 C.3       7        0    0.0000
     45 H          14.5882   -2.1370    0.7476 H         7        0    0.0000
     46 H          14.8004   -1.7801   -0.9629 H         7        0    0.0000
     47 H          15.9463    0.4811    0.1875 H         7        0    0.0000
     48 H          16.3248   -0.7347    1.4027 H         7        0    0.0000
     49 C          17.2506   -1.1130   -0.5388 C.3       8        0    0.0000
     50 C          18.5252   -0.2857   -0.3391 C.3       8        0    0.0000
     51 H          17.4429   -2.1652   -0.2949 H         8        0    0.0000
     52 H          16.9448   -1.0846   -1.5920 H         8        0    0.0000
     53 H          18.2700    0.7736   -0.2117 H         8        0    0.0000
     54 H          19.0370   -0.5991    0.5793 H         8        0    0.0000
     55 C          19.5186   -0.4249   -1.5438 C.3       9        0    0.0000
     56 C          20.9391    0.0211   -1.1798 C.3       9        0    0.0000
     57 H          19.5263   -1.4701   -1.8769 H         9        0    0.0000
     58 H          19.1410    0.1709   -2.3841 H         9        0    0.0000
     59 H          21.3953    0.5507   -2.0253 H         9        0    0.0000
     60 H          20.9080    0.7305   -0.3435 H         9        0    0.0000
     61 C          21.8578   -1.1860   -0.7846 C.3      10        0    0.0000
     62 C          23.2923   -0.7462   -0.4719 C.3      10        0    0.0000
     63 H          21.4216   -1.6924    0.0854 H        10        0    0.0000
     64 H          21.8580   -1.9139   -1.6054 H        10        0    0.0000
     65 H          23.4917    0.2343   -0.9219 H        10        0    0.0000
     66 H          23.4219   -0.6279    0.6111 H        10        0    0.0000
     67 C          24.3559   -1.7699   -0.9992 C.3      11        0    0.0000
     68 C          25.7849   -1.2241   -0.9034 C.3      11        0    0.0000
     69 H          24.2687   -2.6991   -0.4226 H        11        0    0.0000
     70 H          24.1185   -2.0218   -2.0403 H        11        0    0.0000
     71 H          26.5052   -2.0063   -1.1734 H        11        0    0.0000
     72 H          25.9241   -0.4062   -1.6212 H        11        0    0.0000
     73 C          26.1249   -0.6984    0.5338 C.3      12        0    0.0000
     74 C          27.4849    0.0062    0.5879 C.3      12        0    0.0000
     75 H          25.3323   -0.0116    0.8558 H        12        0    0.0000
     76 H          26.1115   -1.5445    1.2321 H        12        0    0.0000
     77 H          27.6044    0.6607   -0.2844 H        12        0    0.0000
     78 H          27.5401    0.6498    1.4746 H        12        0    0.0000
     79 C          28.6789   -1.0089    0.6254 C.3      13        0    0.0000
     80 C          30.0101   -0.3544    0.2401 C.3      13        0    0.0000
     81 H          28.7478   -1.4367    1.6332 H        13        0    0.0000
     82 H          28.4576   -1.8404   -0.0553 H        13        0    0.0000
     83 H          30.0107   -0.1034   -0.8279 H        13        0    0.0000
     84 H          30.1372    0.5890    0.7854 H        13        0    0.0000
     85 C          31.2374   -1.2817    0.5419 C.3      14        0    0.0000
     86 C          32.5709   -0.5338    0.4344 C.3      14        0    0.0000
     87 H          31.1229   -1.7037    1.5480 H        14        0    0.0000
     88 H          31.2226   -2.1267   -0.1577 H        14        0    0.0000
     89 H          32.8386   -0.3918   -0.6200 H        14        0    0.0000
     90 H          32.4771    0.4673    0.8732 H        14        0    0.0000
     91 C          33.7380   -1.2936    1.1541 C.3      15        0    0.0000
     92 C          35.1163   -0.7645    0.7428 C.3      15        0    0.0000
     93 H          33.6065   -1.1974    2.2390 H        15        0    0.0000
     94 H          33.6606   -2.3629    0.9210 H        15        0    0.0000
     95 H          35.0735    0.3217    0.5948 H        15        0    0.0000
     96 H          35.8431   -0.9448    1.5445 H        15        0    0.0000
     97 C          35.6407   -1.4336   -0.5744 C.3      16        0    0.0000
     98 C          37.1708   -1.4221   -0.6624 C.3      16        0    0.0000
     99 H          35.2691   -2.4648   -0.6194 H        16        0    0.0000
    100 H          35.2104   -0.9059   -1.4346 H        16        0    0.0000
    101 H          37.6055   -1.6902    0.3085 H        16        0    0.0000
    102 H          37.5120   -2.1784   -1.3800 H        16        0    0.0000
    103 C          37.7303   -0.0239   -1.0977 C.3      17        0    0.0000
    104 C          39.1920    0.1724   -0.6804 C.3      17        0    0.0000
    105 H          37.6337    0.0724   -2.1862 H        17        0    0.0000
    106 H          37.1042    0.7609   -0.6552 H        17        0    0.0000
    107 H          39.5577    1.1434   -1.0365 H        17        0    0.0000
    108 H          39.2720    0.1875    0.4137 H        17        0    0.0000
    109 C          40.1260   -0.9555   -1.2397 C.3      18        0    0.0000
    110 C          41.4803   -0.9965   -0.5233 C.3      18        0    0.0000
    111 H          39.6159   -1.9212   -1.1355 H        18        0    0.0000
    112 H          40.2738   -0.7917   -2.3144 H        18        0    0.0000
    113 H          41.3403   -1.2664    0.5308 H        18        0    0.0000
    114 H          42.1164   -1.7733   -0.9655 H        18        0    0.0000
    115 C          42.2336    0.3763   -0.5977 C.3      19        0    0.0000
    116 C          43.7218    0.2415   -0.2568 C.3      19        0    0.0000
    117 H          42.1148    0.7906   -1.6066 H        19        0    0.0000
    118 H          41.7522    1.0815    0.0912 H        19        0    0.0000
    119 H          44.2102    1.2223   -0.3101 H        19        0    0.0000
    120 H          43.8408   -0.1140    0.7742 H        19        0    0.0000
    121 C          44.4650   -0.7462   -1.2208 C.3      20        0    0.0000
    122 C          45.9511   -0.8885   -0.8739 C.3      20        0    0.0000
    123 H          43.9721   -1.7252   -1.1729 H        20        0    0.0000
    124 H          44.3520   -0.3868   -2.2512 H        20        0    0.0000
    125 H          46.4364    0.0953   -0.8875 H        20        0    0.0000
    126 H          46.0637   -1.2813    0.1442 H        20        0    0.0000
    127 C          46.7050   -1.8376   -1.8679 C.3      21        0    0.0000
    128 C          48.2024   -1.9346   -1.5556 C.3      21        0    0.0000
    129 H          46.2462   -2.8331   -1.8231 H        21        0    0.0000
    130 H          46.5572   -1.4683   -2.8903 H        21        0    0.0000
    131 H          48.4929   -2.9849   -1.4285 H        21        0    0.0000
    132 H          48.7882   -1.5455   -2.3976 H        21        0    0.0000
    133 C          48.5916   -1.1423   -0.2602 C.3      22        0    0.0000
    134 C          50.1078   -0.9672   -0.1199 C.3      22        0    0.0000
    135 H          48.1003   -0.1617   -0.2844 H        22        0    0.0000
    136 H          48.1920   -1.6734    0.6126 H        22        0    0.0000
    137 H          50.5979   -1.9479   -0.0823 H        22        0    0.0000
    138 H          50.5093   -0.4479   -0.9989 H        22        0    0.0000
    139 C          50.4960   -0.1586    1.1657 C.3      23        0    0.0000
    140 C          52.0048    0.0938    1.2596 C.3      23        0    0.0000
    141 H          49.9547    0.7956    1.1602 H        23        0    0.0000
    142 H          50.1514   -0.7112    2.0485 H        23        0    0.0000
    143 H          52.2117    1.1686    1.1865 H        23        0    0.0000
    144 H          52.3809   -0.2337    2.2368 H        23        0    0.0000
    145 C          52.8030   -0.6521    0.1353 C.3      24        0    0.0000
    146 C          54.3185   -0.4820    0.2885 C.3      24        0    0.0000
    147 H          52.5395   -1.7167    0.1614 H        24        0    0.0000
    148 H          52.4785   -0.2710   -0.8409 H        24        0    0.0000
    149 H          54.5797    0.5835    0.2854 H        24        0    0.0000
    150 H          54.6463   -0.8838    1.2552 H        24        0    0.0000
    151 C          55.1155   -1.2009   -0.8540 C.3      25        0    0.0000
    152 C          56.6319   -1.1065   -0.6526 C.3      25        0    0.0000
    153 H          54.8060   -2.2527   -0.8933 H        25        0    0.0000
    154 H          54.8353   -0.7540   -1.8159 H        25        0    0.0000
    155 H          57.1511   -1.6840   -1.4275 H        25        0    0.0000
    156 H          56.9618   -0.0658   -0.7612 H        25        0    0.0000
    157 C          57.0783   -1.6337    0.7547 C.3      26        0    0.0000
    158 C          58.5918   -1.5165    0.9656 C.3      26        0    0.0000
    159 H          56.5456   -1.0683    1.5294 H        26        0    0.0000
    160 H          56.7643   -2.6800    0.8562 H        26        0    0.0000
    161 H          58.9142   -2.1968    1.7636 H        26        0    0.0000
    162 H          59.1232   -1.8234    0.0562 H        26        0    0.0000
    163 C          59.0285   -0.0577    1.3380 C.3      27        0    0.0000
    164 C          60.4505    0.2619    0.8638 C.3      27        0    0.0000
    165 H          58.3162    0.6488    0.8942 H        27        0    0.0000
    166 H          58.9582    0.0656    2.4259 H        27        0    0.0000
    167 H          60.4284    0.6315   -0.1689 H        27        0    0.0000
    168 H          60.8799    1.0642    1.4764 H        27        0    0.0000
    169 C          61.3948   -0.9874    0.9332 C.3      28        0    0.0000
    170 C          62.7548   -0.7247    0.2771 C.3      28        0    0.0000
    171 H          61.5324   -1.2687    1.9846 H        28        0    0.0000
    172 H          60.8980   -1.8339    0.4431 H        28        0    0.0000
    173 H          62.6212   -0.1533   -0.6498 H        28        0    0.0000
    174 H          63.3792   -0.1111    0.9383 H        28        0    0.0000
    175 C          63.5213   -2.0517   -0.0533 C.3      29        0    0.0000
    176 C          65.0240   -1.8215   -0.2479 C.3      29        0    0.0000
    177 H          63.3527   -2.7692    0.7593 H        29        0    0.0000
    178 H          63.0881   -2.4941   -0.9590 H        29        0    0.0000
    179 H          65.4944   -2.7275   -0.6497 H        29        0    0.0000
    180 H          65.1904   -1.0266   -0.9855 H        29        0    0.0000
    181 C          65.7429   -1.4291    1.0887 C.3      30        0    0.0000
    182 C          67.2505   -1.2280    0.9000 C.3      30        0    0.0000
    183 H          65.2869   -0.5108    1.4791 H        30        0    0.0000
    184 H          65.5583   -2.2136    1.8330 H        30        0    0.0000
    185 H          67.7862   -1.5224    1.8110 H        30        0    0.0000
    186 H          67.6186   -1.8760    0.0949 H        30        0    0.0000
    187 C          67.6135    0.2582    0.5583 C.3      31        0    0.0000
    188 C          68.9869    0.3817   -0.1107 C.3      31        0    0.0000
    189 H          66.8369    0.6699   -0.0981 H        31        0    0.0000
    190 H          67.5907    0.8492    1.4824 H        31        0    0.0000
    191 H          68.8739    0.3956   -1.2018 H        31        0    0.0000
    192 H          69.4577    1.3321    0.1695 H        31        0    0.0000
    193 C          69.9472   -0.7932    0.2828 C.3      32        0    0.0000
    194 C          71.3319   -0.6513   -0.3586 C.3      32        0    0.0000
    195 H          70.0401   -0.8231    1.3756 H        32        0    0.0000
    196 H          69.4877   -1.7422   -0.0203 H        32        0    0.0000
    197 H          71.2420   -0.1882   -1.3490 H        32        0    0.0000
    198 H          71.9596    0.0157    0.2452 H        32        0    0.0000
    199 C          72.0607   -2.0309   -0.5102 C.3      33        0    0.0000
    200 C          73.5855   -1.8809   -0.5516 C.3      33        0    0.0000
    201 H          71.7690   -2.6786    0.3258 H        33        0    0.0000
    202 H          71.7058   -2.5195   -1.4260 H        33        0    0.0000
    203 H          74.0291   -2.7046   -1.1245 H        33        0    0.0000
    204 H          73.8583   -0.9535   -1.0703 H        33        0    0.0000
    205 C          74.2198   -1.8634    0.8819 C.3      34        0    0.0000
    206 C          75.7129   -1.5183    0.8522 C.3      34        0    0.0000
    207 H          73.6780   -1.1365    1.4995 H        34        0    0.0000
    208 H          74.0700   -2.8457    1.3469 H        34        0    0.0000
    209 H          75.8513   -0.4726    0.5507 H        34        0    0.0000
    210 H          76.1416   -1.6159    1.8573 H        34        0    0.0000
    211 C          76.5158   -2.4382   -0.1311 C.3      35        0    0.0000
    212 C          77.9346   -1.9174   -0.3857 C.3      35        0    0.0000
    213 H          76.5564   -3.4518    0.2866 H        35        0    0.0000
    214 H          75.9656   -2.5093   -1.0776 H        35        0    0.0000
    215 H          78.5497   -2.7064   -0.8359 H        35        0    0.0000
    216 H          77.9080   -1.0896   -1.1052 H        35        0    0.0000
    217 C          78.6305   -1.4222    0.9288 C.3      36        0    0.0000
    218 C          80.1019   -1.0562    0.7046 C.3      36        0    0.0000
    219 H          78.0815   -0.5542    1.3142 H        36        0    0.0000
    220 H          78.5503   -2.2088    1.6893 H        36        0    0.0000
    221 H          80.2209   -0.5517   -0.2623 H        36        0    0.0000
    222 H          80.4344   -0.3472    1.4729 H        36        0    0.0000
    223 C          81.0384   -2.3129    0.7375 C.3      37        0    0.0000
    224 C          82.5136   -1.9430    0.5476 C.3      37        0    0.0000
    225 H          80.9008   -2.8315    1.6944 H        37        0    0.0000
    226 H          80.7215   -3.0107   -0.0474 H        37        0    0.0000
    227 H          82.7664   -1.0742    1.1679 H        37        0    0.0000
    228 H          83.1544   -2.7675    0.8841 H        37        0    0.0000
    229 C          82.8561   -1.6141   -0.9463 C.3      38        0    0.0000
    230 C          84.3255   -1.2198   -1.1322 C.3      38        0    0.0000
    231 H          82.6206   -2.4896   -1.5641 H        38        0    0.0000
    232 H          82.2026   -0.8021   -1.2884 H        38        0    0.0000
    233 H          84.4569   -0.6980   -2.0882 H        38        0    0.0000
    234 H          84.6289   -0.5177   -0.3457 H        38        0    0.0000
    235 C          85.2825   -2.4609   -1.0982 C.3      39        0    0.0000
    236 C          86.6782   -2.1040   -0.5751 C.3      39        0    0.0000
    237 H          84.8319   -3.2378   -0.4680 H        39        0    0.0000
    238 H          85.3555   -2.8790   -2.1098 H        39        0    0.0000
    239 H          86.6154   -1.7732    0.4690 H        39        0    0.0000
    240 H          87.3224   -2.9919   -0.5860 H        39        0    0.0000
    241 C          87.3596   -0.9750   -1.4228 C.3      40        0    0.0000
    242 C          88.6374   -0.4445   -0.7633 C.3      40        0    0.0000
    243 H          87.5875   -1.3705   -2.4203 H        40        0    0.0000
    244 H          86.6420   -0.1573   -1.5644 H        40        0    0.0000
    245 H          88.6430    0.6524   -0.7824 H        40        0    0.0000
    246 H          88.6670   -0.7414    0.2924 H        40        0    0.0000
    247 C          89.9335   -0.9688   -1.4721 C.3      41        0    0.0000
    248 C          91.1695   -0.8675   -0.5715 C.3      41        0    0.0000
    249 H          89.7737   -2.0109   -1.7756 H        41        0    0.0000
    250 H          90.0907   -0.3931   -2.3927 H        41        0    0.0000
    251 H          91.3499    0.1791   -0.2966 H        41        0    0.0000
    252 H          90.9990   -1.4141    0.3642 H        41        0    0.0000
    253 C          92.4562   -1.4374   -1.2622 C.3      42        0    0.0000
    254 C          93.6727   -1.4184   -0.3301 C.3      42        0    0.0000
    255 H          92.2539   -2.4628   -1.5958 H        42        0    0.0000
    256 H          92.6640   -0.8481   -2.1639 H        42        0    0.0000
    257 H          93.8440   -0.4015    0.0442 H        42        0    0.0000
    258 H          93.4842   -2.0494    0.5473 H        42        0    0.0000
    259 C          94.9754   -1.9205   -1.0431 C.3      43        0    0.0000
    260 C          96.2471   -1.4308   -0.3415 C.3      43        0    0.0000
    261 H          94.9614   -3.0170   -1.0741 H        43        0    0.0000
    262 H          94.9638   -1.5757   -2.0845 H        43        0    0.0000
    263 H          96.1424   -0.3736   -0.0678 H        43        0    0.0000
    264 H          96.3980   -1.9848    0.5933 H        43        0    0.0000
    265 C          97.5219   -1.5967   -1.2386 C.3      44        0    0.0000
    266 C          98.8122   -1.6370   -0.4125 C.3      44        0    0.0000
    267 H          97.4230   -2.5174   -1.8269 H        44        0    0.0000
    268 H          97.5601   -0.7673   -1.9557 H        44        0    0.0000
    269 H          98.9692   -0.6732    0.0873 H        44        0    0.0000
    270 H          98.7289   -2.3923    0.3788 H        44        0    0.0000
    271 C         100.0698   -1.9616   -1.2904 C.3      45        0    0.0000
    272 C         101.3821   -1.7336   -0.5321 C.3      45        0    0.0000
    273 H         100.0063   -3.0037   -1.6275 H        45        0    0.0000
    274 H         100.0427   -1.3367   -2.1916 H        45        0    0.0000
    275 H         101.4261   -0.7034   -0.1577 H        45        0    0.0000
    276 H         101.4282   -2.3900    0.3458 H        45        0    0.0000
    277 C         102.6402   -1.9996   -1.4286 C.3      46        0    0.0000
    278 C         103.9399   -2.0129   -0.6163 C.3      46        0    0.0000
    279 H         102.5098   -2.9585   -1.9454 H        46        0    0.0000
    280 H         102.6903   -1.2271   -2.2059 H        46        0    0.0000
    281 H         104.2072   -0.9917   -0.3175 H        46        0    0.0000
    282 H         103.7994   -2.5853    0.3089 H        46        0    0.0000
    283 C         105.1352   -2.6340   -1.4181 C.3      47        0    0.0000
    284 C         106.4954   -2.1690   -0.8863 C.3      47        0    0.0000
    285 H         105.0652   -3.7276   -1.3668 H        47        0    0.0000
    286 H         105.0315   -2.3610   -2.4756 H        47        0    0.0000
    287 H         107.3042   -2.6646   -1.4375 H        47        0    0.0000
    288 H         106.6155   -1.0912   -1.0520 H        47        0    0.0000
    289 C         106.6690   -2.4676    0.6428 C.3      48        0    0.0000
    290 C         107.8805   -1.7448    1.2419 C.3      48        0    0.0000
    291 H         105.7540   -2.1669    1.1680 H        48        0    0.0000
    292 H         106.7707   -3.5511    0.7822 H        48        0    0.0000
    293 H         108.1680   -0.9001    0.6036 H        48        0    0.0000
    294 H         107.6214   -1.3252    2.2219 H        48        0    0.0000
    295 C         109.1161   -2.6948    1.4096 C.3      49        0    0.0000
    296 C         110.3665   -2.1504    0.7104 C.3      49        0    0.0000
    297 H         109.3135   -2.8326    2.4799 H        49        0    0.0000
    298 H         108.8599   -3.6826    1.0068 H        49        0    0.0000
    299 H         110.4135   -2.5232   -0.3204 H        49        0    0.0000
    300 H         110.3162   -1.0563    0.6477 H        49        0    0.0000
    301 C         111.6862   -2.5537    1.4542 C.3      50        0    0.0000
    302 C         112.9374   -2.0202    0.7478 C.3      50        0    0.0000
    303 H         111.6433   -2.1727    2.4821 H        50        0    0.0000
    304 H         111.7320   -3.6475    1.5252 H        50        0    0.0000
    305 H         113.1553   -2.6263   -0.1403 H        50        0    0.0000
    306 H         112.7624   -0.9962    0.3950 H        50        0    0.0000
    307 C         114.1952   -2.0243    1.6834 C.3      51        0    0.0000
    308 C         115.4531   -1.5197    0.9678 C.3      51        0    0.0000
    309 H         113.9854   -1.3997    2.5606 H        51        0    0.0000
    310 H         114.3568   -3.0441    2.0542 H        51        0    0.0000
    311 H         115.1882   -1.1105   -0.0150 H        51        0    0.0000
    312 H         115.9072   -0.7001    1.5383 H        51        0    0.0000
    313 C         116.5201   -2.6516    0.7730 C.3      52        0    0.0000
    314 C         117.8796   -2.0985    0.3315 C.3      52        0    0.0000
    315 H         116.6265   -3.2033    1.7153 H        52        0    0.0000
    316 H         116.1455   -3.3665    0.0299 H        52        0    0.0000
    317 H         117.8576   -1.8561   -0.7382 H        52        0    0.0000
    318 H         118.0954   -1.1629    0.8621 H        52        0    0.0000
    319 C         119.0471   -3.1105    0.5964 C.3      53        0    0.0000
    320 C         120.4221   -2.4347    0.5554 C.3      53        0    0.0000
    321 H         118.8897   -3.5841    1.5733 H        53        0    0.0000
    322 H         118.9986   -3.9104   -0.1529 H        53        0    0.0000
    323 H         120.3101   -1.3478    0.6531 H        53        0    0.0000
    324 H         121.0298   -2.7665    1.4064 H        53        0    0.0000
    325 C         121.1976   -2.7456   -0.7710 C.3      54        0    0.0000
    326 C         122.6994   -2.4667   -0.6449 C.3      54        0    0.0000
    327 H         121.0314   -3.7961   -1.0399 H        54        0    0.0000
    328 H         120.7695   -2.1417   -1.5807 H        54        0    0.0000
    329 H         122.8924   -1.3918   -0.7494 H        54        0    0.0000
    330 H         123.0529   -2.7547    0.3529 H        54        0    0.0000
    331 C         123.5393   -3.2379   -1.7206 C.3      55        0    0.0000
    332 C         125.0346   -3.2584   -1.3849 C.3      55        0    0.0000
    333 H         123.1573   -4.2633   -1.7991 H        55        0    0.0000
    334 H         123.3797   -2.7666   -2.6984 H        55        0    0.0000
    335 H         125.2338   -3.9986   -0.6001 H        55        0    0.0000
    336 H         125.6133   -3.5678   -2.2640 H        55        0    0.0000
    337 C         125.5548   -1.8599   -0.9042 C.3      56        0    0.0000
    338 C         126.9852   -1.9286   -0.3581 C.3      56        0    0.0000
    339 H         125.5064   -1.1566   -1.7448 H        56        0    0.0000
    340 H         124.8756   -1.4761   -0.1328 H        56        0    0.0000
    341 H         126.9771   -2.3095    0.6707 H        56        0    0.0000
    342 H         127.5806   -2.6342   -0.9506 H        56        0    0.0000
    343 C         127.6949   -0.5309   -0.3738 C.3      57        0    0.0000
    344 C         129.2205   -0.6531   -0.2922 C.3      57        0    0.0000
    345 H         127.4085    0.0008   -1.2897 H        57        0    0.0000
    346 H         127.3198    0.0656    0.4671 H        57        0    0.0000
    347 H         129.6507   -0.6728   -1.3012 H        57        0    0.0000
    348 H         129.6417    0.2250    0.2128 H        57        0    0.0000
    349 C         129.6729   -1.9429    0.4754 C.3      58        0    0.0000
    350 C         131.1942   -2.1280    0.4538 C.3      58        0    0.0000
    351 H         129.3161   -1.8816    1.5109 H        58        0    0.0000
    352 H         129.1816   -2.8137    0.0239 H        58        0    0.0000
    353 H         131.5253   -2.4043   -0.5549 H        58        0    0.0000
    354 H         131.6918   -1.1820    0.7006 H        58        0    0.0000
    355 C         131.6730   -3.2289    1.4620 C.3      59        0    0.0000
    356 C         133.1907   -3.4377    1.4163 C.3      59        0    0.0000
    357 H         131.3634   -2.9402    2.4741 H        59        0    0.0000
    358 H         131.1568   -4.1688    1.2306 H        59        0    0.0000
    359 H         133.6206   -3.2931    2.4152 H        59        0    0.0000
    360 H         133.4197   -4.4692    1.1211 H        59        0    0.0000
    361 C         133.8955   -2.4576    0.4162 C.3      60        0    0.0000
    362 C         135.3909   -2.7576    0.2655 C.3      60        0    0.0000
    363 H         133.3974   -2.5287   -0.5587 H        60        0    0.0000
    364 H         133.7518   -1.4288    0.7690 H        60        0    0.0000
    365 H         135.9205   -2.5051    1.1925 H        60        0    0.0000
    366 H         135.5442   -3.8308    0.0975 H        60        0    0.0000
    367 C         136.0398   -1.9628   -0.9197 C.3      61        0    0.0000
    368 C         137.5606   -2.1446   -0.9772 C.3      61        0    0.0000
    369 H         135.5852   -2.2971   -1.8605 H        61        0    0.0000
    370 H         135.7919   -0.8997   -0.8102 H        61        0    0.0000
    371 H         137.8171   -3.2054   -0.8663 H        61        0    0.0000
    372 H         137.9403   -1.8294   -1.9570 H        61        0    0.0000
    373 C         138.2993   -1.3269    0.1378 C.3      62        0    0.0000
    374 C         139.7705   -1.7331    0.2777 C.3      62        0    0.0000
    375 H         138.2249   -0.2584   -0.0994 H        62        0    0.0000
    376 H         137.7758   -1.4752    1.0905 H        62        0    0.0000
    377 H         139.8440   -2.7323    0.7245 H        62        0    0.0000
    378 H         140.2392   -1.7953   -0.7122 H        62        0    0.0000
    379 C         140.5841   -0.7242    1.1595 C.3      63        0    0.0000
    380 C         142.0833   -1.0424    1.1730 C.3      63        0    0.0000
    381 H         140.4185    0.2914    0.7790 H        63        0    0.0000
    382 H         140.1855   -0.7465    2.1814 H        63        0    0.0000
    383 H         142.6371   -0.2681    0.6278 H        63        0    0.0000
    384 H         142.4605   -1.0332    2.2031 H        63        0    0.0000
    385 C         142.4004   -2.4370    0.5312 C.3      64        0    0.0000
    386 C         143.9068   -2.6848    0.3953 C.3      64        0    0.0000
    387 H         141.9442   -3.2218    1.1474 H        64        0    0.0000
    388 H         141.9200   -2.4905   -0.4536 H        64        0    0.0000
    389 H         144.3389   -1.9858   -0.3315 H        64        0    0.0000
    390 H         144.4074   -2.4934    1.3525 H        64        0    0.0000
    391 C         144.2292   -4.1500   -0.0595 C.3      65        0    0.0000
    392 C         145.6170   -4.2675   -0.6992 C.3      65        0    0.0000
    393 H         144.1588   -4.8140    0.8110 H        65        0    0.0000
    394 H         143.4590   -4.4777   -0.7687 H        65        0    0.0000
    395 H         145.5812   -4.9578   -1.5511 H        65        0    0.0000
    396 H         145.9322   -3.2942   -1.0954 H        65        0    0.0000
    397 C         146.6984   -4.7739    0.3164 C.3      66        0    0.0000
    398 C         147.9715   -3.9212    0.2826 C.3      66        0    0.0000
    399 H         146.2672   -4.7662    1.3252 H        66        0    0.0000
    400 H         146.9392   -5.8188    0.0847 H        66        0    0.0000
    401 H         148.3653   -3.8737   -0.7403 H        66        0    0.0000
    402 H         147.7420   -2.8905    0.5800 H        66        0    0.0000
    403 C         149.0883   -4.4832    1.2283 C.3      67        0    0.0000
    404 C         150.3125   -3.5633    1.2923 C.3      67        0    0.0000
    405 H         148.6666   -4.6186    2.2320 H        67        0    0.0000
    406 H         149.3839   -5.4785    0.8740 H        67        0    0.0000
    407 H         150.0169   -2.5285    1.0791 H        67        0    0.0000
    408 H         150.7341   -3.5681    2.3051 H        67        0    0.0000
    409 C         151.4292   -3.9890    0.2779 C.3      68        0    0.0000
    410 C         152.4627   -2.8798    0.0526 C.3      68        0    0.0000
    411 H         151.9236   -4.8928    0.6551 H        68        0    0.0000
    412 H         150.9570   -4.2621   -0.6739 H        68        0    0.0000
    413 H         151.9561   -1.9367   -0.1871 H        68        0    0.0000
    414 H         153.0341   -2.7054    0.9728 H        68        0    0.0000
    415 C         153.4620   -3.2250   -1.1049 C.3      69        0    0.0000
    416 C         154.8400   -2.5891   -0.8915 C.3      69        0    0.0000
    417 H         153.5578   -4.3156   -1.1757 H        69        0    0.0000
    418 H         153.0334   -2.8841   -2.0555 H        69        0    0.0000
    419 H         155.1845   -2.1175   -1.8202 H        69        0    0.0000
    420 H         154.7746   -1.7931   -0.1395 H        69        0    0.0000
    421 C         155.9118   -3.6351   -0.4282 C.3      70        0    0.0000
    422 C         157.3264   -3.0458   -0.4047 C.3      70        0    0.0000
    423 H         155.6402   -4.0013    0.5696 H        70        0    0.0000
    424 H         155.8758   -4.5003   -1.1018 H        70        0    0.0000
    425 H         157.4104   -2.2397   -1.1442 H        70        0    0.0000
    426 H         157.5307   -2.5969    0.5752 H        70        0    0.0000
    427 C         158.4241   -4.1238   -0.7055 C.3      71        0    0.0000
    428 C         159.8343   -3.6263   -0.3693 C.3      71        0    0.0000
    429 H         158.1975   -5.0295   -0.1294 H        71        0    0.0000
    430 H         158.3660   -4.4016   -1.7652 H        71        0    0.0000
    431 H         160.1635   -4.0477    0.5886 H        71        0    0.0000
    432 H         160.5466   -3.9738   -1.1278 H        71        0    0.0000
    433 C         159.9084   -2.0626   -0.2854 C.3      72        0    0.0000
    434 C         161.3020   -1.5679    0.1172 C.3      72        0    0.0000
    435 H         159.6268   -1.6426   -1.2590 H        72        0    0.0000
    436 H         159.1613   -1.7115    0.4371 H        72        0    0.0000
    437 H         161.3813   -0.4871   -0.0535 H        72        0    0.0000
    438 H         161.4633   -1.7301    1.1902 H        72        0    0.0000
    439 C         162.4422   -2.2904   -0.6800 C.3      73        0    0.0000
    440 C         163.7911   -2.2212    0.0443 C.3      73        0    0.0000
    441 H         162.1539   -3.3369   -0.8391 H        73        0    0.0000
    442 H         162.5245   -1.8318   -1.6732 H        73        0    0.0000
    443 H         163.9220   -1.2328    0.5020 H        73        0    0.0000
    444 H         163.8173   -2.9527    0.8615 H        73        0    0.0000
    445 C         164.9973   -2.4958   -0.9186 C.3      74        0    0.0000
    446 C         166.3501   -2.3149   -0.2213 C.3      74        0    0.0000
    447 H         164.9104   -3.5162   -1.3120 H        74        0    0.0000
    448 H         164.9241   -1.8192   -1.7790 H        74        0    0.0000
    449 H         166.3070   -1.4625    0.4679 H        74        0    0.0000
    450 H         166.5818   -3.1991    0.3853 H        74        0    0.0000
    451 C         167.5176   -2.0816   -1.2411 C.3      75        0    0.0000
    452 C         168.8966   -2.2173   -0.5862 C.3      75        0    0.0000
    453 H         167.4188   -2.8019   -2.0626 H        75        0    0.0000
    454 H         167.4073   -1.0833   -1.6825 H        75        0    0.0000
    455 H         169.5472   -1.3935   -0.9050 H        75        0    0.0000
    456 H         168.8042   -2.1417    0.5044 H        75        0    0.0000
    457 C         169.5918   -3.5767   -0.9414 C.3      76        0    0.0000
    458 C         171.1054   -3.5346   -0.7038 C.3      76        0    0.0000
    459 H         169.1386   -4.3737   -0.3390 H        76        0    0.0000
    460 H         169.3824   -3.8173   -1.9910 H        76        0    0.0000
    461 H         171.6300   -4.0269   -1.5320 H        76        0    0.0000
    462 H         171.4542   -2.4946   -0.6838 H        76        0    0.0000
    463 C         171.5156   -4.2311    0.6393 C.3      77        0    0.0000
    464 C         173.0171   -4.1094    0.9218 C.3      77        0    0.0000
    465 H         170.9410   -3.7834    1.4597 H        77        0    0.0000
    466 H         171.2261   -5.2882    0.5922 H        77        0    0.0000
    467 H         173.4078   -5.0635    1.2966 H        77        0    0.0000
    468 H         173.5581   -3.8905   -0.0071 H        77        0    0.0000
    469 C         173.3356   -2.9868    1.9686 C.3      78        0    0.0000
    470 C         174.4882   -2.0826    1.5181 C.3      78        0    0.0000
    471 H         172.4304   -2.3890    2.1325 H        78        0    0.0000
    472 H         173.5802   -3.4578    2.9288 H        78        0    0.0000
    473 H         174.1477   -1.4066    0.7240 H        78        0    0.0000
    474 H         174.8173   -1.4494    2.3513 H        78        0    0.0000
    475 C         175.7158   -2.9030    0.9913 C.3      79        0    0.0000
    476 C         176.8508   -1.9983    0.4990 C.3      79        0    0.0000
    477 H         176.0768   -3.5552    1.7961 H        79        0    0.0000
    478 H         175.3798   -3.5604    0.1798 H        79        0    0.0000
    479 H         176.4488   -1.2086   -0.1477 H        79        0    0.0000
    480 H         177.3278   -1.4963    1.3499 H        79        0    0.0000
    481 C         177.9431   -2.7944   -0.2951 C.3      80        0    0.0000
    482 C         179.3369   -2.6439    0.3245 C.3      80        0    0.0000
    483 H         177.6572   -3.8531   -0.3252 H        80        0    0.0000
    484 H         177.9531   -2.4411   -1.3337 H        80        0    0.0000
    485 H         179.7118   -1.6254    0.1643 H        80        0    0.0000
    486 H         179.2840   -2.7929    1.4101 H        80        0    0.0000
    487 C         180.3670   -3.6617   -0.2757 C.3      81        0    0.0000
    488 C         181.8014   -3.3738    0.1808 C.3      81        0    0.0000
    489 H         180.0746   -4.6768    0.0203 H        81        0    0.0000
    490 H         180.3056   -3.6228   -1.3704 H        81        0    0.0000
    491 H         181.8848   -2.3363    0.5275 H        81        0    0.0000
    492 H         182.0600   -4.0128    1.0343 H        81        0    0.0000
    493 C         182.8475   -3.6100   -0.9626 C.3      82        0    0.0000
    494 C         184.2524   -3.1390   -0.5709 C.3      82        0    0.0000
    495 H         182.8646   -4.6785   -1.2110 H        82        0    0.0000
    496 H         182.5115   -3.0824   -1.8638 H        82        0    0.0000
    497 H         184.7729   -2.7372   -1.4491 H        82        0    0.0000
    498 H         184.1856   -2.3212    0.1573 H        82        0    0.0000
    499 C         185.1163   -4.2937    0.0440 C.3      83        0    0.0000
    500 C         186.5801   -3.8834    0.2387 C.3      83        0    0.0000
    501 H         184.6777   -4.5902    1.0048 H        83        0    0.0000
    502 H         185.0554   -5.1696   -0.6138 H        83        0    0.0000
    503 H         187.0476   -3.6848   -0.7337 H        83        0    0.0000
    504 H         186.6360   -2.9496    0.8118 H        83        0    0.0000
    505 C         187.4115   -4.9840    0.9837 C.3      84        0    0.0000
    506 C         188.8563   -4.5438    1.2440 C.3      84        0    0.0000
    507 H         186.9139   -5.2214    1.9322 H        84        0    0.0000
    508 H         187.4003   -5.9023    0.3837 H        84        0    0.0000
    509 H         188.8804   -3.7770    2.0283 H        84        0    0.0000
    510 H         189.4469   -5.3912    1.6137 H        84        0    0.0000
    511 C         189.5441   -3.9717   -0.0433 C.3      85        0    0.0000
    512 C         190.9597   -3.4547    0.2355 C.3      85        0    0.0000
    513 H         189.5747   -4.7585   -0.8072 H        85        0    0.0000
    514 H         188.9215   -3.1641   -0.4477 H        85        0    0.0000
    515 H         190.9195   -2.5995    0.9214 H        85        0    0.0000
    516 H         191.5523   -4.2313    0.7347 H        85        0    0.0000
    517 C         191.7012   -3.0173   -1.0746 C.3      86        0    0.0000
    518 C         193.1945   -2.7643   -0.8400 C.3      86        0    0.0000
    519 H         191.5666   -3.7973   -1.8343 H        86        0    0.0000
    520 H         191.2230   -2.1107   -1.4657 H        86        0    0.0000
    521 H         193.6813   -2.4845   -1.7825 H        86        0    0.0000
    522 H         193.3296   -1.9198   -0.1529 H        86        0    0.0000
    523 C         193.9238   -4.0192   -0.2478 C.3      87        0    0.0000
    524 C         195.3995   -3.7420    0.0601 C.3      87        0    0.0000
    525 H         193.4019   -4.3338    0.6645 H        87        0    0.0000
    526 H         193.8377   -4.8479   -0.9616 H        87        0    0.0000
    527 H         195.9248   -3.4425   -0.8553 H        87        0    0.0000
    528 H         195.4862   -2.9032    0.7618 H        87        0    0.0000
    529 C         196.1233   -4.9903    0.6727 C.3      88        0    0.0000
    530 C         197.6237   -4.7510    0.8739 C.3      88        0    0.0000
    531 H         195.6501   -5.2384    1.6309 H        88        0    0.0000
    532 H         195.9650   -5.8509    0.0110 H        88        0    0.0000
    533 H         197.7832   -4.0021    1.6596 H        88        0    0.0000
    534 H         198.1094   -5.6737    1.2148 H        88        0    0.0000
    535 C         198.3289   -4.2641   -0.4388 C.3      89        0    0.0000
    536 C         199.7802   -3.8364   -0.1942 C.3      89        0    0.0000
    537 H         198.2948   -5.0728   -1.1793 H        89        0    0.0000
    538 H         197.7560   -3.4280   -0.8587 H        89        0    0.0000
    539 H         199.8099   -2.9837    0.4956 H        89        0    0.0000
    540 H         200.3362   -4.6504    0.2872 H        89        0    0.0000
    541 C         200.5141   -3.4387   -1.5211 C.3      90        0    0.0000
    542 C         201.9760   -3.0459   -1.2810 C.3      90        0    0.0000
    543 H         200.4612   -4.2820   -2.2208 H        90        0    0.0000
    544 H         199.9730   -2.6069   -1.9888 H        90        0    0.0000
    545 H         202.4917   -2.9114   -2.2399 H        90        0    0.0000
    546 H         202.0257   -2.0824   -0.7587 H        90        0    0.0000
    547 C         202.7485   -4.1181   -0.4378 C.3      91        0    0.0000
    548 C         204.1431   -3.6364   -0.0231 C.3      91        0    0.0000
    549 H         202.1551   -4.3629    0.4519 H        91        0    0.0000
    550 H         202.8287   -5.0403   -1.0265 H        91        0    0.0000
    551 H         204.7580   -3.4535   -0.9131 H        91        0    0.0000
    552 H         204.0679   -2.6804    0.5097 H        91        0    0.0000
    553 C         204.8799   -4.6706    0.8963 C.3      92        0    0.0000
    554 C         206.3645   -4.3344    1.0751 C.3      92        0    0.0000
    555 H         204.3795   -4.6954    1.8723 H        92        0    0.0000
    556 H         204.7707   -5.6715    0.4607 H        92        0    0.0000
    557 H         206.4728   -3.3750    1.5961 H        92        0    0.0000
    558 H         206.8483   -5.0912    1.7049 H        92        0    0.0000
    559 C         207.1247   -4.2548   -0.2935 C.3      93        0    0.0000
    560 C         208.6088   -3.9164   -0.1147 C.3      93        0    0.0000
    561 H         207.0178   -5.2148   -0.8137 H        93        0    0.0000
    562 H         206.6399   -3.4992   -0.9239 H        93        0    0.0000
    563 H         208.7202   -2.8768    0.2173 H        93        0    0.0000
    564 H         209.0464   -4.5463    0.6696 H        93        0    0.0000
    565 C         209.4269   -4.1148   -1.4372 C.3      94        0    0.0000
    566 C         210.9245   -3.8568   -1.2381 C.3      94        0    0.0000
    567 H         209.2665   -5.1369   -1.8022 H        94        0    0.0000
    568 H         209.0277   -3.4400   -2.2045 H        94        0    0.0000
    569 H         211.4908   -4.7817   -1.4037 H        94        0    0.0000
    570 H         211.2829   -3.1310   -1.9786 H        94        0    0.0000
    571 C         211.2485   -3.3161    0.1973 C.3      95        0    0.0000
    572 C         212.7351   -2.9867    0.3720 C.3      95        0    0.0000
    573 H         210.6406   -2.4221    0.3839 H        95        0    0.0000
    574 H         210.9401   -4.0665    0.9357 H        95        0    0.0000
    575 H         213.1519   -2.6162   -0.5728 H        95        0    0.0000
    576 H         212.8582   -2.1822    1.1076 H        95        0    0.0000
    577 C         213.5682   -4.2299    0.8387 C.3      96        0    0.0000
    578 C         215.0720   -4.0397    0.6121 C.3      96        0    0.0000
    579 H         213.3680   -4.4107    1.9021 H        96        0    0.0000
    580 H         213.2151   -5.1159    0.2966 H        96        0    0.0000
    581 H         215.3958   -3.0763    1.0251 H        96        0    0.0000
    582 H         215.6340   -4.8161    1.1458 H        96        0    0.0000
    583 C         215.4552   -4.0926   -0.9071 C.3      97        0    0.0000
    584 C         216.8978   -3.6401   -1.1583 C.3      97        0    0.0000
    585 H         215.3136   -5.1175   -1.2720 H        97        0    0.0000
    586 H         214.7587   -3.4588   -1.4698 H        97        0    0.0000
    587 H         217.0942   -3.5907   -2.2365 H        97        0    0.0000
    588 H         217.0485   -2.6275   -0.7640 H        97        0    0.0000
    589 C         217.9455   -4.6007   -0.4973 C.3      98        0    0.0000
    590 C         219.1921   -3.8539   -0.0102 C.3      98        0    0.0000
    591 H         217.4676   -5.1219    0.3414 H        98        0    0.0000
    592 H         218.2288   -5.3702   -1.2261 H        98        0    0.0000
    593 H         219.2770   -2.8884   -0.5242 H        98        0    0.0000
    594 H         219.1042   -3.6339    1.0610 H        98        0    0.0000
    595 C         220.5072   -4.6722   -0.2517 C.3      99        0    0.0000
    596 C         221.7581   -3.7877   -0.2079 C.3      99        0    0.0000
    597 H         220.5774   -5.4609    0.5076 H        99        0    0.0000
    598 H         220.4367   -5.1761   -1.2237 H        99        0    0.0000
    599 H         221.5507   -2.8192   -0.6798 H        99        0    0.0000
    600 H         222.0344   -3.5783    0.8329 H        99        0    0.0000
    601 C         222.9803   -4.4509   -0.9316 C.3     100        0    0.0000
    602 C         224.3147   -4.0831   -0.2733 C.3     100        0    0.0000
    603 H         222.8459   -5.5397   -0.9268 H       100        0    0.0000
    604 H         222.9809   -4.1382   -1.9832 H       100        0    0.0000
    605 H         224.1458   -3.7485    0.7577 H       100        0    0.0000
    606 H         224.9619   -4.9671   -0.2156 H       100        0    0.0000
    607 C         225.0708   -2.9533   -1.0538 C.3     101        0    0.0000
    608 C         226.4041   -2.5841   -0.3943 C.3     101        0    0.0000
    609 H         225.2410   -3.2886   -2.0844 H       101        0    0.0000
    610 H         224.4230   -2.0699   -1.1129 H       101        0    0.0000
    611 H         226.6799   -1.5545   -0.6539 H       101        0    0.0000
    612 H         226.3057   -2.6180    0.6978 H       101        0    0.0000
    613 C         227.5665   -3.5429   -0.8269 C.3     102        0    0.0000
    614 C         228.8487   -3.3008   -0.0229 C.3     102        0    0.0000
    615 H         227.2341   -4.5808   -0.7013 H       102        0    0.0000
    616 H         227.7614   -3.4018   -1.8973 H       102        0    0.0000
    617 H         229.1576   -2.2521   -0.1142 H       102        0    0.0000
    618 H         228.6644   -3.4833    1.0430 H       102        0    0.0000
    619 C         230.0287   -4.2181   -0.4960 C.3     103        0    0.0000
    620 C         231.3878   -3.7243    0.0118 C.3     103        0    0.0000
    621 H         229.8445   -5.2408   -0.1440 H       103        0    0.0000
    622 H         230.0284   -4.2574   -1.5923 H       103        0    0.0000
    623 H         231.5053   -2.6557   -0.2065 H       103        0    0.0000
    624 H         231.4434   -3.8310    1.1023 H       103        0    0.0000
    625 C         232.5831   -4.5064   -0.6340 C.3     104        0    0.0000
    626 C         233.9430   -3.9288   -0.2264 C.3     104        0    0.0000
    627 H         232.5178   -5.5604   -0.3368 H       104        0    0.0000
    628 H         232.4749   -4.4796   -1.7253 H       104        0    0.0000
    629 H         234.0074   -2.8741   -0.5213 H       104        0    0.0000
    630 H         234.0524   -3.9581    0.8648 H       104        0    0.0000
    631 C         235.1383   -4.7086   -0.8751 C.3     105        0    0.0000
    632 C         236.4792   -3.9973   -0.6631 C.3     105        0    0.0000
    633 H         235.1760   -5.7179   -0.4468 H       105        0    0.0000
    634 H         234.9415   -4.8287   -1.9477 H       105        0    0.0000
    635 H         237.0674   -4.0197   -1.5890 H       105        0    0.0000
    636 H         236.3105   -2.9403   -0.4226 H       105        0    0.0000
    637 C         237.3221   -4.6489    0.4868 C.3     106        0    0.0000
    638 C         238.7001   -3.9954    0.6389 C.3     106        0    0.0000
    639 H         236.7613   -4.5672    1.4262 H       106        0    0.0000
    640 H         237.4347   -5.7203    0.2793 H       106        0    0.0000
    641 H         238.6131   -2.9064    0.5385 H       106        0    0.0000
    642 H         239.0993   -4.1884    1.6424 H       106        0    0.0000
    643 C         239.7270   -4.5203   -0.4229 C.3     107        0    0.0000
    644 C         241.0417   -3.7330   -0.3982 C.3     107        0    0.0000
    645 H         239.9213   -5.5830   -0.2317 H       107        0    0.0000
    646 H         239.2697   -4.4578   -1.4182 H       107        0    0.0000
    647 H         241.4630   -3.6725   -1.4094 H       107        0    0.0000
    648 H         240.8567   -2.7021   -0.0718 H       107        0    0.0000
    649 C         242.1047   -4.3814    0.5541 C.3     108        0    0.0000
    650 C         243.4494   -3.6473    0.5091 C.3     108        0    0.0000
    651 H         241.7098   -4.3806    1.5776 H       108        0    0.0000
    652 H         242.2401   -5.4322    0.2695 H       108        0    0.0000
    653 H         243.3107   -2.6318    0.1181 H       108        0    0.0000
    654 H         243.8545   -3.5419    1.5232 H       108        0    0.0000
    655 C         244.5033   -4.3919   -0.3811 C.3     109        0    0.0000
    656 C         245.9270   -3.8719   -0.1534 C.3     109        0    0.0000
    657 H         244.4556   -5.4658   -0.1621 H       109        0    0.0000
    658 H         244.2233   -4.2726   -1.4351 H       109        0    0.0000
    659 H         245.9890   -2.8120   -0.4298 H       109        0    0.0000
    660 H         246.1850   -3.9356    0.9109 H       109        0    0.0000
    661 C         246.9912   -4.6727   -0.9801 C.3     110        0    0.0000
    662 C         248.3979   -4.0792   -0.8456 C.3     110        0    0.0000
    663 H         246.9894   -5.7164   -0.6420 H       110        0    0.0000
    664 H         246.6862   -4.6824   -2.0339 H       110        0    0.0000
    665 H         248.8960   -4.0669   -1.8230 H       110        0    0.0000
    666 H         248.3357   -3.0365   -0.5105 H       110        0    0.0000
    667 C         249.2875   -4.8825    0.1647 C.3     111        0    0.0000
    668 C         250.3307   -3.9952    0.8528 C.3     111        0    0.0000
    669 H         248.6372   -5.3494    0.9148 H       111        0    0.0000
    670 H         249.7845   -5.6992   -0.3735 H       111        0    0.0000
    671 H         249.9152   -2.9958    1.0320 H       111        0    0.0000
    672 H         250.5882   -4.4101    1.8353 H       111        0    0.0000
    673 C         251.6416   -3.8529    0.0051 C.3     112        0    0.0000
    674 C         252.8991   -3.8213    0.8809 C.3     112        0    0.0000
    675 H         251.6973   -4.6889   -0.7030 H       112        0    0.0000
    676 H         251.5775   -2.9362   -0.5941 H       112        0    0.0000
    677 H         253.1177   -2.7911    1.1882 H       112        0    0.0000
    678 H         252.7316   -4.3956    1.8005 H       112        0    0.0000
    679 C         254.1525   -4.4049    0.1420 C.3     113        0    0.0000
    680 C         255.4670   -3.8485    0.7000 C.3     113        0    0.0000
    681 H         254.1385   -5.4982    0.2317 H       113        0    0.0000
    682 H         254.0709   -4.1755   -0.9277 H       113        0    0.0000
    683 H         255.5176   -2.7653    0.5340 H       113        0    0.0000
    684 H         255.5103   -4.0032    1.7853 H       113        0    0.0000
    685 C         256.7224   -4.5195    0.0435 C.3     114        0    0.0000
    686 C         258.0193   -3.7716    0.3719 C.3     114        0    0.0000
    687 H         256.7895   -5.5585    0.3893 H       114        0    0.0000
    688 H         256.5752   -4.5580   -1.0430 H       114        0    0.0000
    689 H         257.9276   -2.7164    0.0862 H       114        0    0.0000
    690 H         258.2007   -3.7904    1.4537 H       114        0    0.0000
    691 C         259.2616   -4.3871   -0.3596 C.3     115        0    0.0000
    692 C         260.5855   -3.8305    0.1757 C.3     115        0    0.0000
    693 H         259.2369   -5.4775   -0.2418 H       115        0    0.0000
    694 H         259.1754   -4.1843   -1.4343 H       115        0    0.0000
    695 H         260.6263   -2.7449    0.0230 H       115        0    0.0000
    696 H         260.6545   -3.9993    1.2575 H       115        0    0.0000
    697 C         261.8293   -4.4855   -0.5183 C.3     116        0    0.0000
    698 C         263.1534   -3.9535    0.0408 C.3     116        0    0.0000
    699 H         261.7754   -5.5733   -0.3869 H       116        0    0.0000
    700 H         261.7730   -4.2953   -1.5973 H       116        0    0.0000
    701 H         262.9914   -2.9893    0.5384 H       116        0    0.0000
    702 H         263.5428   -4.6399    0.8029 H       116        0    0.0000
    703 C         264.2386   -3.7699   -1.0755 C.3     117        0    0.0000
    704 C         265.6593   -3.7233   -0.5024 C.3     117        0    0.0000
    705 H         264.1497   -4.5941   -1.7941 H       117        0    0.0000
    706 H         264.0252   -2.8462   -1.6276 H       117        0    0.0000
    707 H         266.0700   -4.7382   -0.4319 H       117        0    0.0000
    708 H         266.3187   -3.1628   -1.1766 H       117        0    0.0000
    709 C         265.7059   -3.0596    0.9170 C.3     118        0    0.0000
    710 C         267.1408   -2.8249    1.4017 C.3     118        0    0.0000
    711 H         265.1608   -2.1082    0.8806 H       118        0    0.0000
    712 H         265.1699   -3.7029    1.6259 H       118        0    0.0000
    713 H         267.7988   -2.6260    0.5467 H       118        0    0.0000
    714 H         267.1805   -1.9359    2.0433 H       118        0    0.0000
    715 C         267.7061   -4.0498    2.2001 C.3     119        0    0.0000
    716 C         269.0980   -4.4679    1.7137 C.3     119        0    0.0000
    717 H         267.7419   -3.7913    3.2656 H       119        0    0.0000
    718 H         267.0059   -4.8888    2.1029 H       119        0    0.0000
    719 H         269.8199   -3.6638    1.9029 H       119        0    0.0000
    720 H         269.4462   -5.3427    2.2767 H       119        0    0.0000
    721 C         269.1143   -4.8121    0.1844 C.3     120        0    0.0000
    722 C         270.5053   -5.2348   -0.3010 C.3     120        0    0.0000
    723 H         268.3900   -5.6138   -0.0054 H       120        0    0.0000
    724 H         268.7695   -3.9361   -0.3789 H       120        0    0.0000
    725 H         271.1323   -5.5170    0.5538 H       120        0    0.0000
    726 H         270.4267   -6.1224   -0.9409 H       120        0    0.0000
    727 C         271.2261   -4.0965   -1.1024 C.3     121        0    0.0000
    728 C         272.6574   -3.8560   -0.6098 C.3     121        0    0.0000
    729 H         271.2345   -4.3639   -2.1664 H       121        0    0.0000
    730 H         270.6379   -3.1747   -1.0139 H       121        0    0.0000
    731 H         272.6466   -3.2072    0.2748 H       121        0    0.0000
    732 H         273.1127   -4.8046   -0.2992 H       121        0    0.0000
    733 C         273.5612   -3.1975   -1.7085 C.3     122        0    0.0000
    734 C         275.0535   -3.3138   -1.3793 C.3     122        0    0.0000
    735 H         273.3503   -3.6757   -2.6730 H       122        0    0.0000
    736 H         273.2799   -2.1422   -1.8118 H       122        0    0.0000
    737 H         275.4204   -4.3133   -1.6442 H       122        0    0.0000
    738 H         275.6281   -2.5979   -1.9801 H       122        0    0.0000
    739 C         275.3495   -3.0526    0.1378 C.3     123        0    0.0000
    740 C         276.8437   -3.1521    0.4636 C.3     123        0    0.0000
    741 H         274.9715   -2.0581    0.4056 H       123        0    0.0000
    742 H         274.7845   -3.7765    0.7380 H       123        0    0.0000
    743 H         277.4395   -2.9152   -0.4266 H       123        0    0.0000
    744 H         277.1121   -2.4126    1.2283 H       123        0    0.0000
    745 C         277.2464   -4.5778    0.9764 C.3     124        0    0.0000
    746 C         278.6401   -4.9960    0.4950 C.3     124        0    0.0000
    747 H         277.2100   -4.5826    2.0728 H       124        0    0.0000
    748 H         276.4969   -5.3017    0.6330 H       124        0    0.0000
    749 H         279.0268   -5.8084    1.1226 H       124        0    0.0000
    750 H         278.5828   -5.3882   -0.5280 H       124        0    0.0000
    751 C         279.6603   -3.8060    0.5234 C.3     125        0    0.0000
    752 C         281.0370   -4.2083   -0.0166 C.3     125        0    0.0000
    753 H         279.2523   -2.9763   -0.0670 H       125        0    0.0000
    754 H         279.7520   -3.4435    1.5548 H       125        0    0.0000
    755 H         281.6427   -4.6465    0.7862 H       125        0    0.0000
    756 H         280.9277   -4.9819   -0.7868 H       125        0    0.0000
    757 C         281.8136   -2.9919   -0.6290 C.3     126        0    0.0000
    758 C         283.2983   -3.3020   -0.8491 C.3     126        0    0.0000
    759 H         281.3423   -2.7141   -1.5800 H       126        0    0.0000
    760 H         281.7045   -2.1296    0.0404 H       126        0    0.0000
    761 H         283.4813   -4.3761   -0.7215 H       126        0    0.0000
    762 H         283.5860   -3.0534   -1.8782 H       126        0    0.0000
    763 C         284.2232   -2.5110    0.1391 C.3     127        0    0.0000
    764 C         285.6713   -3.0117    0.1061 C.3     127        0    0.0000
    765 H         284.1876   -1.4455   -0.1196 H       127        0    0.0000
    766 H         283.8166   -2.6026    1.1539 H       127        0    0.0000
    767 H         285.8100   -3.7068   -0.7313 H       127        0    0.0000
    768 H         286.3560   -2.1718   -0.0652 H       127        0    0.0000
    769 C         286.0807   -3.7343    1.4356 C.3     128        0    0.0000
    770 C         287.5083   -4.2891    1.3794 C.3     128        0    0.0000
    771 H         285.9852   -3.0252    2.2673 H       128        0    0.0000
    772 H         285.3690   -4.5461    1.6305 H       128        0    0.0000
    773 H         287.8363   -4.5859    2.3833 H       128        0    0.0000
    774 H         287.5363   -5.1932    0.7587 H       128        0    0.0000
    775 C         288.5280   -3.2479    0.8019 C.3     129        0    0.0000
    776 C         289.7287   -3.9224    0.1293 C.3     129        0    0.0000
    777 H         288.0068   -2.6039    0.0828 H       129        0    0.0000
    778 H         288.8696   -2.5979    1.6170 H       129        0    0.0000
    779 H         290.0856   -4.7566    0.7458 H       129        0    0.0000
    780 H         289.4284   -4.3497   -0.8355 H       129        0    0.0000
    781 C         290.9149   -2.9251   -0.1071 C.3     130        0    0.0000
    782 C         292.2316   -3.6494   -0.4079 C.3     130        0    0.0000
    783 H         290.6549   -2.2569   -0.9375 H       130        0    0.0000
    784 H         291.0279   -2.2929    0.7823 H       130        0    0.0000
    785 H         292.6651   -4.0426    0.5201 H       130        0    0.0000
    786 H         292.0459   -4.5125   -1.0592 H       130        0    0.0000
    787 C         293.2812   -2.7119   -1.0983 C.3     131        0    0.0000
    788 C         294.7216   -3.1798   -0.8630 C.3     131        0    0.0000
    789 H         293.0687   -2.6749   -2.1740 H       131        0    0.0000
    790 H         293.1498   -1.6920   -0.7161 H       131        0    0.0000
    791 H         294.7320   -4.2420   -0.5890 H       131        0    0.0000
    792 H         295.3031   -3.0874   -1.7886 H       131        0    0.0000
    793 C         295.4356   -2.3597    0.2663 C.3     132        0    0.0000
    794 C         296.9503   -2.5933    0.2845 C.3     132        0    0.0000
    795 H         295.2211   -1.2940    0.1189 H       132        0    0.0000
    796 H         295.0005   -2.6377    1.2342 H       132        0    0.0000
    797 H         297.2822   -2.9848   -0.6851 H       132        0    0.0000
    798 H         297.4757   -1.6424    0.4370 H       132        0    0.0000
    799 C         297.3833   -3.5959    1.4092 C.3     133        0    0.0000
    800 C         298.8220   -4.0907    1.2238 C.3     133        0    0.0000
    801 H         297.2780   -3.1018    2.3830 H       133        0    0.0000
    802 H         296.6902   -4.4463    1.4109 H       133        0    0.0000
    803 H         299.3237   -4.1616    2.1968 H       133        0    0.0000
    804 H         298.8201   -5.1009    0.7960 H       133        0    0.0000
    805 C         299.6587   -3.1486    0.2912 C.3     134        0    0.0000
    806 C         300.9767   -3.7925   -0.1531 C.3     134        0    0.0000
    807 H         299.0523   -2.8896   -0.5856 H       134        0    0.0000
    808 H         299.8590   -2.2108    0.8239 H       134        0    0.0000
    809 H         300.9692   -4.8644    0.0804 H       134        0    0.0000
    810 H         301.0887   -3.7079   -1.2412 H       134        0    0.0000
    811 C         302.2215   -3.1340    0.5356 C.3     135        0    0.0000
    812 C         303.5226   -3.4169   -0.2234 C.3     135        0    0.0000
    813 H         302.0551   -2.0519    0.6066 H       135        0    0.0000
    814 H         302.2965   -3.5093    1.5637 H       135        0    0.0000
    815 H         303.9621   -4.3608    0.1223 H       135        0    0.0000
    816 H         303.3147   -3.5396   -1.2936 H       135        0    0.0000
    817 C         304.5776   -2.2717   -0.0415 C.3     136        0    0.0000
    818 C         305.9811   -2.6992   -0.4847 C.3     136        0    0.0000
    819 H         304.2518   -1.3963   -0.6168 H       136        0    0.0000
    820 H         304.5920   -1.9685    1.0127 H       136        0    0.0000
    821 H         305.9377   -3.6772   -0.9798 H       136        0    0.0000
    822 H         306.3748   -1.9897   -1.2230 H       136        0    0.0000
    823 C         306.9832   -2.7856    0.7176 C.3     137        0    0.0000
    824 C         308.4303   -2.9864    0.2544 C.3     137        0    0.0000
    825 H         306.9025   -1.8669    1.3118 H       137        0    0.0000
    826 H         306.6797   -3.6119    1.3723 H       137        0    0.0000
    827 H         308.5155   -2.7701   -0.8178 H       137        0    0.0000
    828 H         309.0923   -2.2807    0.7716 H       137        0    0.0000
    829 C         308.9416   -4.4447    0.5179 C.3     138        0    0.0000
    830 C         310.4687   -4.5138    0.6283 C.3     138        0    0.0000
    831 H         308.4803   -4.8199    1.4399 H       138        0    0.0000
    832 H         308.5934   -5.0938   -0.2952 H       138        0    0.0000
    833 H         310.8328   -3.7296    1.3035 H       138        0    0.0000
    834 H         310.7710   -5.4727    1.0671 H       138        0    0.0000
    835 C         311.1729   -4.3501   -0.7626 C.3     139        0    0.0000
    836 C         312.6245   -3.8775   -0.6266 C.3     139        0    0.0000
    837 H         311.1380   -5.3105   -1.2918 H       139        0    0.0000
    838 H         310.6000   -3.6362   -1.3672 H       139        0    0.0000
    839 H         313.1968   -4.1584   -1.5195 H       139        0    0.0000
    840 H         312.6593   -2.7829   -0.5617 H       139        0    0.0000
    841 C         313.3301   -4.4812    0.6364 C.3     140        0    0.0000
    842 C         314.7362   -3.9084    0.8457 C.3     140        0    0.0000
    843 H         312.7079   -4.2826    1.5178 H       140        0    0.0000
    844 H         313.3807   -5.5716    0.5258 H       140        0    0.0000
    845 H         314.8373   -2.9553    0.3119 H       140        0    0.0000
    846 H         314.9002   -3.6930    1.9088 H       140        0    0.0000
    847 C         315.8562   -4.8867    0.3497 C.3     141        0    0.0000
    848 C         317.2354   -4.2193    0.3116 C.3     141        0    0.0000
    849 H         315.8798   -5.7616    1.0112 H       141        0    0.0000
    850 H         315.5882   -5.2538   -0.6488 H       141        0    0.0000
    851 H         317.2542   -3.3557    0.9880 H       141        0    0.0000
    852 H         318.0013   -4.9177    0.6710 H       141        0    0.0000
    853 C         317.6242   -3.7408   -1.1296 C.3     142        0    0.0000
    854 C         318.9269   -2.9333   -1.1418 C.3     142        0    0.0000
    855 H         317.7200   -4.6191   -1.7800 H       142        0    0.0000
    856 H         316.8033   -3.1365   -1.5351 H       142        0    0.0000
    857 H         318.8623   -2.1262   -1.8821 H       142        0    0.0000
    858 H         319.0822   -2.4550   -0.1669 H       142        0    0.0000
    859 C         320.1744   -3.8233   -1.4723 C.3     143        0    0.0000
    860 C         321.4425   -3.3312   -0.7662 C.3     143        0    0.0000
    861 H         319.9582   -4.8581   -1.1792 H       143        0    0.0000
    862 H         320.3269   -3.8289   -2.5587 H       143        0    0.0000
    863 H         322.2961   -3.3721   -1.4541 H       143        0    0.0000
    864 H         321.3255   -2.2809   -0.4715 H       143        0    0.0000
    865 C         321.7798   -4.1790    0.5085 C.3     144        0    0.0000
    866 C         323.1648   -3.8490    1.0759 C.3     144        0    0.0000
    867 H         321.0092   -3.9976    1.2680 H       144        0    0.0000
    868 H         321.7231   -5.2438    0.2502 H       144        0    0.0000
    869 H         323.2260   -2.7817    1.3219 H       144        0    0.0000
    870 H         323.3285   -4.3978    2.0116 H       144        0    0.0000
    871 C         324.3172   -4.2035    0.0740 C.3     145        0    0.0000
    872 C         325.6695   -3.6367    0.5200 C.3     145        0    0.0000
    873 H         324.3797   -5.2946   -0.0213 H       145        0    0.0000
    874 H         324.0552   -3.8151   -0.9180 H       145        0    0.0000
    875 H         325.6980   -2.5533    0.3492 H       145        0    0.0000
    876 H         325.8042   -3.7893    1.5980 H       145        0    0.0000
    877 C         326.8708   -4.2995   -0.2382 C.3     146        0    0.0000
    878 C         328.1201   -3.4117   -0.2361 C.3     146        0    0.0000
    879 H         327.0951   -5.2656    0.2307 H       146        0    0.0000
    880 H         326.5633   -4.5136   -1.2693 H       146        0    0.0000
    881 H         328.1761   -2.8388   -1.1700 H       146        0    0.0000
    882 H         328.0602   -2.6799    0.5792 H       146        0    0.0000
    883 C         329.4393   -4.2427   -0.0731 C.3     147        0    0.0000
    884 C         330.6691   -3.3484    0.1191 C.3     147        0    0.0000
    885 H         329.3279   -4.9185    0.7838 H       147        0    0.0000
    886 H         329.5698   -4.8763   -0.9591 H       147        0    0.0000
    887 H         330.9200   -2.8462   -0.8234 H       147        0    0.0000
    888 H         330.4496   -2.5587    0.8483 H       147        0    0.0000
    889 C         331.9200   -4.1559    0.6100 C.3     148        0    0.0000
    890 C         333.2383   -3.4971    0.1893 C.3     148        0    0.0000
    891 H         331.8763   -4.2460    1.7025 H       148        0    0.0000
    892 H         331.8633   -5.1749    0.2074 H       148        0    0.0000
    893 H         333.1866   -3.1905   -0.8628 H       148        0    0.0000
    894 H         333.4068   -2.5852    0.7753 H       148        0    0.0000
    895 C         334.4666   -4.4529    0.3774 C.3     149        0    0.0000
    896 C         335.7938   -3.6886    0.4349 C.3     149        0    0.0000
    897 H         334.3260   -5.0324    1.2982 H       149        0    0.0000
    898 H         334.4833   -5.1740   -0.4492 H       149        0    0.0000
    899 H         335.6337   -2.6879    0.8550 H       149        0    0.0000
    900 H         336.4952   -4.2026    1.1038 H       149        0    0.0000
    901 C         336.4575   -3.5432   -0.9779 C.3     150        0    0.0000
    902 C         337.6784   -2.6171   -0.9536 C.3     150        0    0.0000
    903 H         336.7475   -4.5387   -1.3364 H       150        0    0.0000
    904 H         335.7088   -3.1604   -1.6825 H       150        0    0.0000
    905 H         337.6540   -1.9398   -1.8164 H       150        0    0.0000
    906 H         337.6538   -1.9858   -0.0568 H       150        0    0.0000
    907 C         339.0286   -3.4133   -0.9744 C.3     151        0    0.0000
    908 C         340.2423   -2.5046   -0.7505 C.3     151        0    0.0000
    909 H         338.9927   -4.1904   -0.2009 H       151        0    0.0000
    910 H         339.1189   -3.9311   -1.9373 H       151        0    0.0000
    911 H         340.2102   -1.6561   -1.4451 H       151        0    0.0000
    912 H         340.2153   -2.0837    0.2624 H       151        0    0.0000
    913 C         341.5986   -3.2660   -0.9452 C.3     152        0    0.0000
    914 C         342.6923   -2.7554   -0.0008 C.3     152        0    0.0000
    915 H         341.4294   -4.3374   -0.7805 H       152        0    0.0000
    916 H         341.9201   -3.1546   -1.9882 H       152        0    0.0000
    917 H         342.7853   -1.6657   -0.0872 H       152        0    0.0000
    918 H         342.4189   -2.9666    1.0405 H       152        0    0.0000
    919 C         344.0867   -3.4067   -0.2991 C.3     153        0    0.0000
    920 C         345.2502   -2.4656    0.0319 C.3     153        0    0.0000
    921 H         344.1755   -4.3334    0.2814 H       153        0    0.0000
    922 H         344.1239   -3.6932   -1.3574 H       153        0    0.0000
    923 H         345.1041   -1.4980   -0.4640 H       153        0    0.0000
    924 H         345.2773   -2.2659    1.1103 H       153        0    0.0000
    925 C         346.6346   -3.0550   -0.4079 C.3     154        0    0.0000
    926 C         347.8044   -2.4177    0.3500 C.3     154        0    0.0000
    927 H         346.6257   -4.1395   -0.2429 H       154        0    0.0000
    928 H         346.7574   -2.9015   -1.4872 H       154        0    0.0000
    929 H         347.8888   -1.3558    0.0876 H       154        0    0.0000
    930 H         347.6208   -2.4615    1.4307 H       154        0    0.0000
    931 C         349.1688   -3.1247    0.0401 C.3     155        0    0.0000
    932 C         350.3677   -2.1961    0.2617 C.3     155        0    0.0000
    933 H         349.2589   -4.0137    0.6765 H       155        0    0.0000
    934 H         349.1551   -3.4803   -0.9977 H       155        0    0.0000
    935 H         350.3412   -1.3692   -0.4588 H       155        0    0.0000
    936 H         350.3149   -1.7454    1.2605 H       155        0    0.0000
    937 C         351.7359   -2.9477    0.1181 C.3     156        0    0.0000
    938 C         352.9182   -1.9816   -0.0150 C.3     156        0    0.0000
    939 H         351.8765   -3.5961    0.9918 H       156        0    0.0000
    940 H         351.6875   -3.6060   -0.7582 H       156        0    0.0000
    941 H         352.7288   -1.2645   -0.8234 H       156        0    0.0000
    942 H         353.0309   -1.3958    0.9057 H       156        0    0.0000
    943 C         354.2655   -2.7280   -0.3070 C.3     157        0    0.0000
    944 C         355.4888   -1.8440   -0.0406 C.3     157        0    0.0000
    945 H         354.3113   -3.6309    0.3145 H       157        0    0.0000
    946 H         354.2643   -3.0641   -1.3513 H       157        0    0.0000
    947 H         355.4128   -0.9132   -0.6163 H       157        0    0.0000
    948 H         355.5228   -1.5579    1.0179 H       157        0    0.0000
    949 C         356.8322   -2.5606   -0.4138 C.3     158        0    0.0000
    950 C         358.0374   -1.9479    0.3081 C.3     158        0    0.0000
    951 H         356.7460   -3.6255   -0.1646 H       158        0    0.0000
    952 H         356.9745   -2.5018   -1.5000 H       158        0    0.0000
    953 H         358.0927   -0.8720    0.1012 H       158        0    0.0000
    954 H         357.9196   -2.0543    1.3937 H       158        0    0.0000
    955 C         359.3894   -2.6152   -0.1212 C.3     159        0    0.0000
    956 C         360.6082   -1.8314    0.3778 C.3     159        0    0.0000
    957 H         359.4166   -3.6407    0.2676 H       159        0    0.0000
    958 H         359.4138   -2.6924   -1.2153 H       159        0    0.0000
    959 H         360.5919   -0.8122   -0.0278 H       159        0    0.0000
    960 H         360.5728   -1.7363    1.4702 H       159        0    0.0000
    961 C         361.9601   -2.5145   -0.0263 C.3     160        0    0.0000
    962 C         363.1781   -1.6804    0.3852 C.3     160        0    0.0000
    963 H         362.0083   -3.5063    0.4400 H       160        0    0.0000
    964 H         361.9640   -2.6761   -1.1114 H       160        0    0.0000
    965 H         363.1585   -0.7091   -0.1245 H       160        0    0.0000
    966 H         363.1449   -1.4719    1.4618 H       160        0    0.0000
    967 C         364.5307   -2.3991    0.0512 C.3     161        0    0.0000
    968 C         365.7409   -1.4791    0.2461 C.3     161        0    0.0000
    969 H         364.6263   -3.2867    0.6888 H       161        0    0.0000
    970 H         364.4939   -2.7580   -0.9849 H       161        0    0.0000
    971 H         365.6890   -0.6359   -0.4538 H       161        0    0.0000
    972 H         365.7294   -1.0513    1.2562 H       161        0    0.0000
    973 C         367.0995   -2.2311    0.0312 C.3     162        0    0.0000
    974 C         368.3056   -1.2904    0.1276 C.3     162        0    0.0000
    975 H         367.1841   -3.0291    0.7794 H       162        0    0.0000
    976 H         367.0815   -2.7204   -0.9505 H       162        0    0.0000
    977 H         368.2029   -0.4719   -0.5956 H       162        0    0.0000
    978 H         368.3444   -0.8291    1.1222 H       162        0    0.0000
    979 C         369.6606   -2.0325   -0.1383 C.3     163        0    0.0000
    980 C         370.8735   -1.1179    0.0652 C.3     163        0    0.0000
    981 H         369.7264   -2.8992    0.5312 H       163        0    0.0000
    982 H         369.6535   -2.4255   -1.1625 H       163        0    0.0000
    983 H         370.7748   -0.2187   -0.5554 H       163        0    0.0000
    984 H         370.9177   -0.7781    1.1074 H       163        0    0.0000
    985 C         372.2227   -1.8322   -0.2910 C.3     164        0    0.0000
    986 C         373.4426   -1.0578    0.2201 C.3     164        0    0.0000
    987 H         372.2119   -2.8422    0.1371 H       164        0    0.0000
    988 H         372.2825   -1.9523   -1.3799 H       164        0    0.0000
    989 H         373.4446   -0.0425   -0.1954 H       164        0    0.0000
    990 H         373.3908   -0.9517    1.3108 H       164        0    0.0000
    991 C         374.7926   -1.7604   -0.1558 C.3     165        0    0.0000
    992 C         376.0128   -0.9786    0.3430 C.3     165        0    0.0000
    993 H         374.7948   -2.7721    0.2685 H       165        0    0.0000
    994 H         374.8396   -1.8758   -1.2458 H       165        0    0.0000
    995 H         376.0372    0.0159   -0.1196 H       165        0    0.0000
    996 H         375.9413   -0.8206    1.4262 H       165        0    0.0000
    997 C         377.3600   -1.7156    0.0278 C.3     166        0    0.0000
    998 C         378.5820   -0.8265    0.2831 C.3     166        0    0.0000
    999 H         377.4194   -2.6222    0.6427 H       166        0    0.0000
   1000 H         377.3465   -2.0449   -1.0186 H       166        0    0.0000
   1001 H         378.5135    0.0887   -0.3179 H       166        0    0.0000
   1002 H         378.6056   -0.5122    1.3340 H       166        0    0.0000
   1003 C         379.9280   -1.5547   -0.0568 C.3     167        0    0.0000
   1004 C         381.1489   -0.6587    0.1794 C.3     167        0    0.0000
   1005 H         380.0034   -2.4622    0.5550 H       167        0    0.0000
   1006 H         379.8984   -1.8819   -1.1035 H       167        0    0.0000
   1007 H         381.0533    0.2678   -0.4002 H       167        0    0.0000
   1008 H         381.2019   -0.3658    1.2353 H       167        0    0.0000
   1009 C         382.4906   -1.3662   -0.2167 C.3     168        0    0.0000
   1010 C         383.7209   -0.5890    0.2640 C.3     168        0    0.0000
   1011 H         382.4953   -2.3780    0.2075 H       168        0    0.0000
   1012 H         382.5209   -1.4817   -1.3072 H       168        0    0.0000
   1013 H         383.7343    0.4108   -0.1873 H       168        0    0.0000
   1014 H         383.6733   -0.4437    1.3503 H       168        0    0.0000
   1015 C         385.0614   -1.3209   -0.0896 C.3     169        0    0.0000
   1016 C         386.2931   -0.4804    0.2648 C.3     169        0    0.0000
   1017 H         385.0930   -2.2785    0.4448 H       169        0    0.0000
   1018 H         385.0631   -1.5577   -1.1608 H       169        0    0.0000
   1019 H         386.2871    0.4555   -0.3075 H       169        0    0.0000
   1020 H         386.2655   -0.2013    1.3254 H       169        0    0.0000
   1021 C         387.6338   -1.2402   -0.0231 C.3     170        0    0.0000
   1022 C         388.8604   -0.3362    0.1408 C.3     170        0    0.0000
   1023 H         387.7061   -2.0992    0.6554 H       170        0    0.0000
   1024 H         387.5986   -1.6456   -1.0419 H       170        0    0.0000
   1025 H         388.7506    0.5629   -0.4782 H       170        0    0.0000
   1026 H         388.9402    0.0049    1.1804 H       170        0    0.0000
   1027 C         390.1915   -1.0631   -0.2559 C.3     171        0    0.0000
   1028 C         391.4315   -0.2242    0.0720 C.3     171        0    0.0000
   1029 H         390.2387   -2.0254    0.2689 H       171        0    0.0000
   1030 H         390.1640   -1.2904   -1.3288 H       171        0    0.0000
   1031 H         391.3900    0.7331   -0.4620 H       171        0    0.0000
   1032 H         391.4527    0.0131    1.1429 H       171        0    0.0000
   1033 C         392.7632   -0.9582   -0.3094 C.3     172        0    0.0000
   1034 C         394.0020   -0.2234    0.2145 C.3     172        0    0.0000
   1035 H         392.7325   -1.9782    0.0933 H       172        0    0.0000
   1036 H         392.8151   -1.0519   -1.4012 H       172        0    0.0000
   1037 H         394.0454    0.7885   -0.2072 H       172        0    0.0000
   1038 H         393.9386   -0.1083    1.3036 H       172        0    0.0000
   1039 C         395.3318   -0.9750   -0.1376 C.3     173        0    0.0000
   1040 C         396.5711   -0.1050    0.0993 C.3     173        0    0.0000
   1041 H         395.3924   -1.8885    0.4669 H       173        0    0.0000
   1042 H         395.2908   -1.2936   -1.1866 H       173        0    0.0000
   1043 H         396.5078    0.8111   -0.5010 H       173        0    0.0000
   1044 H         396.6151    0.2090    1.1495 H       173        0    0.0000
   1045 C         397.9005   -0.8539   -0.2603 C.3     174        0    0.0000
   1046 C         399.1419    0.0012    0.0161 C.3     174        0    0.0000
   1047 H         397.9490   -1.7853    0.3174 H       174        0    0.0000
   1048 H         397.8694   -1.1409   -1.3187 H       174        0    0.0000
   1049 H         399.1004    0.9260   -0.5725 H       174        0    0.0000
   1050 H         399.1654    0.3002    1.0714 H       174        0    0.0000
   1051 C         400.4722   -0.7552   -0.3244 C.3     175        0    0.0000
   1052 C         401.7145    0.0902   -0.0229 C.3     175        0    0.0000
   1053 H         400.5046   -1.6895    0.2497 H       175        0    0.0000
   1054 H         400.4572   -1.0371   -1.3845 H       175        0    0.0000
   1055 H         401.6729    1.0329   -0.5825 H       175        0    0.0000
   1056 H         401.7393    0.3563    1.0411 H       175        0    0.0000
   1057 C         403.0439   -0.6559   -0.3883 C.3     176        0    0.0000
   1058 C         404.2858    0.1940   -0.0980 C.3     176        0    0.0000
   1059 H         403.0897   -1.5945    0.1779 H       176        0    0.0000
   1060 H         403.0154   -0.9297   -1.4503 H       176        0    0.0000
   1061 H         404.2421    1.1306   -0.6676 H       176        0    0.0000
   1062 H         404.3120    0.4716    0.9631 H       176        0    0.0000
   1063 C         405.6154   -0.5545   -0.4575 C.3     177        0    0.0000
   1064 C         406.8589    0.2732   -0.1147 C.3     177        0    0.0000
   1065 H         405.6396   -1.5103    0.0804 H       177        0    0.0000
   1066 H         405.6072   -0.7955   -1.5278 H       177        0    0.0000
   1067 H         406.8228    1.2390   -0.6338 H       177        0    0.0000
   1068 H         406.8795    0.4937    0.9598 H       177        0    0.0000
   1069 C         408.1877   -0.4611   -0.5054 C.3     178        0    0.0000
   1070 C         409.4292    0.3867   -0.2071 C.3     178        0    0.0000
   1071 H         408.2406   -1.4109    0.0411 H       178        0    0.0000
   1072 H         408.1518   -0.7132   -1.5725 H       178        0    0.0000
   1073 H         409.4153    1.3005   -0.8140 H       178        0    0.0000
   1074 H         409.4237    0.7055    0.8426 H       178        0    0.0000
   1075 C         410.7611   -0.3892   -0.4926 C.3     179        0    0.0000
   1076 C         412.0025    0.4522   -0.1771 C.3     179        0    0.0000
   1077 H         410.7689   -1.3097    0.1042 H       179        0    0.0000
   1078 H         410.7725   -0.6965   -1.5457 H       179        0    0.0000
   1079 H         411.8792    1.4678   -0.5733 H       179        0    0.0000
   1080 H         412.1246    0.5503    0.9087 H       179        0    0.0000
   1081 C         413.3101   -0.1694   -0.7784 C.3     180        0    0.0000
   1082 C         414.5455    0.6933   -0.4981 C.3     180        0    0.0000
   1083 H         413.4494   -1.1735   -0.3590 H       180        0    0.0000
   1084 H         413.1768   -0.2954   -1.8600 H       180        0    0.0000
   1085 H         414.7615    1.3332   -1.3627 H       180        0    0.0000
   1086 H         414.3523    1.3631    0.3490 H       180        0    0.0000
   1087 C         415.8139   -0.1711   -0.1798 C.3     181        0    0.0000
   1088 C         416.9988    0.6843    0.2819 C.3     181        0    0.0000
   1089 H         415.5564   -0.9056    0.5933 H       181        0    0.0000
   1090 H         416.0879   -0.7406   -1.0766 H       181        0    0.0000
   1091 H         416.6425    1.6575    0.6420 H       181        0    0.0000
   1092 H         417.5046    0.2015    1.1273 H       181        0    0.0000
   1093 C         418.0429    0.9208   -0.8634 C.3     182        0    0.0000
   1094 C         419.1765    1.8575   -0.4317 C.3     182        0    0.0000
   1095 H         418.4531   -0.0483   -1.1734 H       182        0    0.0000
   1096 H         417.5230    1.3363   -1.7355 H       182        0    0.0000
   1097 H         419.3917    2.5799   -1.2287 H       182        0    0.0000
   1098 H         418.8699    2.4393    0.4465 H       182        0    0.0000
   1099 C         420.4924    1.0783   -0.0872 C.3     183        0    0.0000
   1100 C         421.7399    1.9591   -0.2172 C.3     183        0    0.0000
   1101 H         420.4139    0.6857    0.9342 H       183        0    0.0000
   1102 H         420.5739    0.2102   -0.7530 H       183        0    0.0000
   1103 H         421.5634    2.7555   -0.9508 H       183        0    0.0000
   1104 H         421.9529    2.4531    0.7389 H       183        0    0.0000
   1105 C         423.0027    1.1398   -0.6550 C.3     184        0    0.0000
   1106 C         424.3100    1.8086   -0.2159 C.3     184        0    0.0000
   1107 H         422.9348    0.1310   -0.2291 H       184        0    0.0000
   1108 H         422.9878    1.0230   -1.7457 H       184        0    0.0000
   1109 H         424.2955    2.8730   -0.4813 H       184        0    0.0000
   1110 H         424.4107    1.7574    0.8753 H       184        0    0.0000
   1111 C         425.5680    1.1415   -0.8714 C.3     185        0    0.0000
   1112 C         426.8611    1.8986   -0.5494 C.3     185        0    0.0000
   1113 H         425.6418    0.1048   -0.5203 H       185        0    0.0000
   1114 H         425.4189    1.0965   -1.9574 H       185        0    0.0000
   1115 H         427.0304    2.6872   -1.2930 H       185        0    0.0000
   1116 H         426.7727    2.3971    0.4239 H       185        0    0.0000
   1117 C         428.1116    0.9537   -0.5214 C.3     186        0    0.0000
   1118 C         429.3530    1.6498    0.0472 C.3     186        0    0.0000
   1119 H         427.8709    0.0662    0.0769 H       186        0    0.0000
   1120 H         428.3116    0.6015   -1.5409 H       186        0    0.0000
   1121 H         429.0548    2.5104    0.6588 H       186        0    0.0000
   1122 H         429.8974    0.9659    0.7100 H       186        0    0.0000
   1123 C         430.3257    2.1431   -1.0789 C.3     187        0    0.0000
   1124 C         431.3091    3.2044   -0.5733 C.3     187        0    0.0000
   1125 H         430.8746    1.2799   -1.4751 H       187        0    0.0000
   1126 H         429.7311    2.5459   -1.9083 H       187        0    0.0000
   1127 H         431.3458    4.0475   -1.2742 H       187        0    0.0000
   1128 H         430.9659    3.6080    0.3873 H       187        0    0.0000
   1129 C         432.7580    2.6338   -0.3929 C.3     188        0    0.0000
   1130 C         433.8136    3.7424   -0.3179 C.3     188        0    0.0000
   1131 H         432.7870    2.0243    0.5188 H       188        0    0.0000
   1132 H         432.9793    1.9597   -1.2297 H       188        0    0.0000
   1133 H         433.5258    4.5803   -0.9648 H       188        0    0.0000
   1134 H         433.8712    4.1384    0.7036 H       188        0    0.0000
   1135 C         435.2353    3.2390   -0.7455 C.3     189        0    0.0000
   1136 C         436.3254    3.6699    0.2419 C.3     189        0    0.0000
   1137 H         435.2132    2.1452   -0.8277 H       189        0    0.0000
   1138 H         435.4608    3.6256   -1.7471 H       189        0    0.0000
   1139 H         436.4561    4.7585    0.2063 H       189        0    0.0000
   1140 H         436.0236    3.4221    1.2671 H       189        0    0.0000
   1141 C         437.7034    2.9854   -0.0585 C.3     190        0    0.0000
   1142 C         438.8636    3.9868   -0.0493 C.3     190        0    0.0000
   1143 H         437.8782    2.2003    0.6874 H       190        0    0.0000
   1144 H         437.6451    2.4862   -1.0336 H       190        0    0.0000
   1145 H         438.6769    4.7856   -0.7778 H       190        0    0.0000
   1146 H         438.9373    4.4680    0.9338 H       190        0    0.0000
   1147 C         440.2366    3.3084   -0.3842 C.3     191        0    0.0000
   1148 C         441.4283    4.2101   -0.0438 C.3     191        0    0.0000
   1149 H         440.3090    2.3643    0.1698 H       191        0    0.0000
   1150 H         440.2527    3.0502   -1.4503 H       191        0    0.0000
   1151 H         441.3581    5.1527   -0.6007 H       191        0    0.0000
   1152 H         441.4100    4.4715    1.0215 H       191        0    0.0000
   1153 C         442.8015    3.5296   -0.3736 C.3     192        0    0.0000
   1154 C         443.9886    4.4666   -0.1251 C.3     192        0    0.0000
   1155 H         442.9029    2.6238    0.2371 H       192        0    0.0000
   1156 H         442.7921    3.2038   -1.4211 H       192        0    0.0000
   1157 H         443.8932    5.3670   -0.7446 H       192        0    0.0000
   1158 H         443.9912    4.8016    0.9195 H       192        0    0.0000
   1159 C         445.3628    3.7806   -0.4391 C.3     193        0    0.0000
   1160 C         446.5524    4.6993   -0.1396 C.3     193        0    0.0000
   1161 H         445.4411    2.8592    0.1511 H       193        0    0.0000
   1162 H         445.3754    3.4808   -1.4943 H       193        0    0.0000
   1163 H         446.4579    5.6339   -0.7061 H       193        0    0.0000
   1164 H         446.5576    4.9739    0.9226 H       193        0    0.0000
   1165 C         447.9246    4.0295   -0.4949 C.3     194        0    0.0000
   1166 C         449.1120    4.9607   -0.2273 C.3     194        0    0.0000
   1167 H         448.0301    3.1076    0.0903 H       194        0    0.0000
   1168 H         447.9100    3.7324   -1.5509 H       194        0    0.0000
   1169 H         449.0385    5.8550   -0.8584 H       194        0    0.0000
   1170 H         449.0914    5.3071    0.8135 H       194        0    0.0000
   1171 C         450.4884    4.2617   -0.4999 C.3     195        0    0.0000
   1172 C         451.6770    5.1777   -0.1880 C.3     195        0    0.0000
   1173 H         450.5477    3.3491    0.1062 H       195        0    0.0000
   1174 H         450.5226    3.9454   -1.5498 H       195        0    0.0000
   1175 H         451.5070    6.1733   -0.6164 H       195        0    0.0000
   1176 H         451.7729    5.3135    0.8964 H       195        0    0.0000
   1177 C         453.0270    4.6106   -0.7476 C.3     196        0    0.0000
   1178 C         454.2090    5.5462   -0.4714 C.3     196        0    0.0000
   1179 H         453.2118    3.6278   -0.2965 H       196        0    0.0000
   1180 H         452.9213    4.4467   -1.8272 H       196        0    0.0000
   1181 H         454.2876    6.2980   -1.2665 H       196        0    0.0000
   1182 H         454.0445    6.0939    0.4649 H       196        0    0.0000
   1183 C         455.5687    4.7723   -0.3716 C.3     197        0    0.0000
   1184 C         456.7147    5.6707    0.1065 C.3     197        0    0.0000
   1185 H         455.4438    3.9250    0.3139 H       197        0    0.0000
   1186 H         455.8076    4.3492   -1.3552 H       197        0    0.0000
   1187 H         456.3122    6.5522    0.6206 H       197        0    0.0000
   1188 H         457.3330    5.1347    0.8372 H       197        0    0.0000
   1189 C         457.6280    6.1479   -1.0749 C.3     198        0    0.0000
   1190 C         458.7152    7.1235   -0.6110 C.3     198        0    0.0000
   1191 H         458.0867    5.2690   -1.5446 H       198        0    0.0000
   1192 H         456.9990    6.6212   -1.8391 H       198        0    0.0000
   1193 H         458.6857    8.0363   -1.2188 H       198        0    0.0000
   1194 H         458.5287    7.4293    0.4259 H       198        0    0.0000
   1195 C         460.1509    6.5009   -0.7037 C.3     199        0    0.0000
   1196 C         461.2458    7.5085   -0.3364 C.3     199        0    0.0000
   1197 H         460.2024    5.6302   -0.0384 H       199        0    0.0000
   1198 H         460.3095    6.1281   -1.7233 H       199        0    0.0000
   1199 H         460.9804    8.5053   -0.7098 H       199        0    0.0000
   1200 H         461.3290    7.5925    0.7543 H       199        0    0.0000
   1201 C         462.6438    7.1059   -0.9202 C.3     200        0    0.0000
   1202 C         463.8010    7.5684   -0.0280 C.3     200        0    0.0000
   1203 H         462.6754    6.0161   -1.0425 H       200        0    0.0000
   1204 H         462.7460    7.5385   -1.9232 H       200        0    0.0000
   1205 H         464.0994    8.5890   -0.2980 H       200        0    0.0000
   1206 H         463.4781    7.6013    1.0199 H       200        0    0.0000
   1207 C         465.0512    6.6295   -0.1422 C.3     201        0    0.0000
   1208 C         466.3639    7.4168   -0.2178 C.3     201        0    0.0000
   1209 H         465.0666    5.9545    0.7225 H       201        0    0.0000
   1210 H         464.9392    5.9983   -1.0325 H       201        0    0.0000
   1211 H         467.0252    6.9740   -0.9729 H       201        0    0.0000
   1212 H         466.1665    8.4476   -0.5375 H       201        0    0.0000
   1213 C         467.1170    7.4496    1.1566 C.3     202        0    0.0000
   1214 C         468.4795    8.1444    1.0560 C.3     202        0    0.0000
   1215 H         466.4865    7.9629    1.8932 H       202        0    0.0000
   1216 H         467.2451    6.4204    1.5143 H       202        0    0.0000
   1217 H         468.5689    8.9116    1.8351 H       202        0    0.0000
   1218 H         469.2848    7.4206    1.2327 H       202        0    0.0000
   1219 C         468.7019    8.8164   -0.3427 C.3     203        0    0.0000
   1220 C         470.0559    9.5283   -0.4364 C.3     203        0    0.0000
   1221 H         468.6270    8.0466   -1.1207 H       203        0    0.0000
   1222 H         467.8885    9.5294   -0.5258 H       203        0    0.0000
   1223 H         469.9289   10.5206   -0.8867 H       203        0    0.0000
   1224 H         470.4670    9.6884    0.5681 H       203        0    0.0000
   1225 C         471.0958    8.7179   -1.2846 C.3     204        0    0.0000
   1226 C         472.5408    9.1233   -0.9740 C.3     204        0    0.0000
   1227 H         470.9549    7.6478   -1.0886 H       204        0    0.0000
   1228 H         470.8819    8.8739   -2.3493 H       204        0    0.0000
   1229 H         473.1184    9.1987   -1.9036 H       204        0    0.0000
   1230 H         472.5611   10.1168   -0.5090 H       204        0    0.0000
   1231 C         473.2516    8.1037   -0.0187 C.3     205        0    0.0000
   1232 C         474.5083    8.6945    0.6300 C.3     205        0    0.0000
   1233 H         472.5407    7.7899    0.7556 H       205        0    0.0000
   1234 H         473.5111    7.2046   -0.5912 H       205        0    0.0000
   1235 H         474.3813    9.7736    0.7818 H       205        0    0.0000
   1236 H         474.6626    8.2528    1.6222 H       205        0    0.0000
   1237 C         475.7929    8.4538   -0.2356 C.3     206        0    0.0000
   1238 C         476.9309    9.4111    0.1351 C.3     206        0    0.0000
   1239 H         476.1181    7.4143   -0.1043 H       206        0    0.0000
   1240 H         475.5327    8.5711   -1.2948 H       206        0    0.0000
   1241 H         476.8009   10.3689   -0.3839 H       206        0    0.0000
   1242 H         476.9040    9.6291    1.2100 H       206        0    0.0000
   1243 C         478.3401    8.8275   -0.2270 C.3     207        0    0.0000
   1244 C         479.4530    9.8729   -0.0954 C.3     207        0    0.0000
   1245 H         478.5477    7.9725    0.4283 H       207        0    0.0000
   1246 H         478.3088    8.4383   -1.2522 H       207        0    0.0000
   1247 H         479.3141   10.6661   -0.8405 H       207        0    0.0000
   1248 H         479.4031   10.3536    0.8895 H       207        0    0.0000
   1249 C         480.8792    9.2491   -0.2815 C.3     208        0    0.0000
   1250 C         481.9895   10.3020   -0.1954 C.3     208        0    0.0000
   1251 H         481.0309    8.4789    0.4849 H       208        0    0.0000
   1252 H         480.9183    8.7396   -1.2523 H       208        0    0.0000
   1253 H         482.9683    9.8117   -0.1245 H       208        0    0.0000
   1254 H         482.0058   10.9072   -1.1103 H       208        0    0.0000
   1255 C         481.8110   11.2543    1.0370 C.3     209        0    0.0000
   1256 C         483.0389   12.1419    1.2678 C.3     209        0    0.0000
   1257 H         480.9217   11.8765    0.8773 H       209        0    0.0000
   1258 H         481.6138   10.6458    1.9283 H       209        0    0.0000
   1259 H         482.7241   13.1684    1.4929 H       209        0    0.0000
   1260 H         483.6015   11.7864    2.1400 H       209        0    0.0000
   1261 C         483.9953   12.1676    0.0260 C.3     210        0    0.0000
   1262 C         485.3213   12.8742    0.3285 C.3     210        0    0.0000
   1263 H         484.1838   11.1361   -0.2966 H       210        0    0.0000
   1264 H         483.4829   12.6687   -0.8046 H       210        0    0.0000
   1265 H         485.1490   13.7274    0.9963 H       210        0    0.0000
   1266 H         485.9989   12.1923    0.8569 H       210        0    0.0000
   1267 C         486.0320   13.3858   -0.9718 C.3     211        0    0.0000
   1268 C         487.5363   13.5962   -0.7670 C.3     211        0    0.0000
   1269 H         485.8598   12.6613   -1.7773 H       211        0    0.0000
   1270 H         485.5603   14.3249   -1.2865 H       211        0    0.0000
   1271 H         487.8543   14.5300   -1.2470 H       211        0    0.0000
   1272 H         487.7596   13.6997    0.3022 H       211        0    0.0000
   1273 C         488.3861   12.4143   -1.3485 C.3     212        0    0.0000
   1274 C         489.8870   12.6009   -1.1006 C.3     212        0    0.0000
   1275 H         488.0438   11.4759   -0.8949 H       212        0    0.0000
   1276 H         488.1898   12.3338   -2.4249 H       212        0    0.0000
   1277 H         490.4394   12.5004   -2.0431 H       212        0    0.0000
   1278 H         490.0834   13.6135   -0.7268 H       212        0    0.0000
   1279 C         490.4526   11.5635   -0.0703 C.3     213        0    0.0000
   1280 C         491.6190   12.1318    0.7455 C.3     213        0    0.0000
   1281 H         489.6414   11.2523    0.5995 H       213        0    0.0000
   1282 H         490.7749   10.6662   -0.6129 H       213        0    0.0000
   1283 H         491.4119   13.1727    1.0232 H       213        0    0.0000
   1284 H         491.7308   11.5720    1.6823 H       213        0    0.0000
   1285 C         492.9748   12.0786   -0.0397 C.3     214        0    0.0000
   1286 C         493.9189   13.2201    0.3534 C.3     214        0    0.0000
   1287 H         493.4554   11.1108    0.1498 H       214        0    0.0000
   1288 H         492.7623   12.1196   -1.1152 H       214        0    0.0000
   1289 H         493.6080   14.1511   -0.1368 H       214        0    0.0000
   1290 H         493.8629   13.3992    1.4343 H       214        0    0.0000
   1291 C         495.4082   12.9189   -0.0324 C.3     215        0    0.0000
   1292 C         496.2183   14.1990   -0.2646 C.3     215        0    0.0000
   1293 H         495.8669   12.3232    0.7666 H       215        0    0.0000
   1294 H         495.4205   12.2968   -0.9359 H       215        0    0.0000
   1295 H         495.8015   14.7597   -1.1104 H       215        0    0.0000
   1296 H         496.1473   14.8536    0.6129 H       215        0    0.0000
   1297 C         497.7304   13.9013   -0.5519 C.3     216        0    0.0000
   1298 C         498.6629   14.8722    0.1806 C.3     216        0    0.0000
   1299 H         497.9508   12.8694   -0.2517 H       216        0    0.0000
   1300 H         497.9027   13.9583   -1.6338 H       216        0    0.0000
   1301 H         498.5748   15.8767   -0.2516 H       216        0    0.0000
   1302 H         498.3672   14.9554    1.2338 H       216        0    0.0000
   1303 C         500.1629   14.4220    0.1110 C.3     217        0    0.0000
   1304 C         501.1059   15.5893   -0.2004 C.3     217        0    0.0000
   1305 H         500.4384   13.9607    1.0675 H       217        0    0.0000
   1306 H         500.2630   13.6429   -0.6549 H       217        0    0.0000
   1307 H         500.7835   16.0992   -1.1167 H       217        0    0.0000
   1308 H         501.0634   16.3326    0.6053 H       217        0    0.0000
   1309 C         502.5916   15.1217   -0.3785 C.3     218        0    0.0000
   1310 C         503.5935   16.2383   -0.0652 C.3     218        0    0.0000
   1311 H         502.7719   14.2600    0.2761 H       218        0    0.0000
   1312 H         502.7305   14.7696   -1.4082 H       218        0    0.0000
   1313 H         503.3647   17.1281   -0.6647 H       218        0    0.0000
   1314 H         503.5074   16.5367    0.9870 H       218        0    0.0000
   1315 C         505.0734   15.8053   -0.3480 C.3     219        0    0.0000
   1316 C         506.0706   16.9392   -0.0857 C.3     219        0    0.0000
   1317 H         505.3147   14.9392    0.2806 H       219        0    0.0000
   1318 H         505.1507   15.4699   -1.3897 H       219        0    0.0000
   1319 H         505.8355   17.8016   -0.7217 H       219        0    0.0000
   1320 H         505.9862   17.2816    0.9532 H       219        0    0.0000
   1321 C         507.5518   16.5019   -0.3547 C.3     220        0    0.0000
   1322 C         508.5586   17.5893    0.0362 C.3     220        0    0.0000
   1323 H         507.7560   15.5812    0.2058 H       220        0    0.0000
   1324 H         507.6597   16.2539   -1.4179 H       220        0    0.0000
   1325 H         508.3443   18.5150   -0.5122 H       220        0    0.0000
   1326 H         508.4619   17.8256    1.1031 H       220        0    0.0000
   1327 C         510.0384   17.1610   -0.2543 C.3     221        0    0.0000
   1328 C         511.0321   18.3017   -0.0088 C.3     221        0    0.0000
   1329 H         510.2885   16.3012    0.3795 H       221        0    0.0000
   1330 H         510.1095   16.8174   -1.2938 H       221        0    0.0000
   1331 H         510.7855   19.1593   -0.6468 H       221        0    0.0000
   1332 H         510.9569   18.6492    1.0291 H       221        0    0.0000
   1333 C         512.5128   17.8709   -0.2913 C.3     222        0    0.0000
   1334 C         513.5148   18.9809    0.0448 C.3     222        0    0.0000
   1335 H         512.7372   16.9712    0.2949 H       222        0    0.0000
   1336 H         512.6037   17.5894   -1.3478 H       222        0    0.0000
   1337 H         513.2874   19.8821   -0.5380 H       222        0    0.0000
   1338 H         513.4272   19.2592    1.1023 H       222        0    0.0000
   1339 C         514.9949   18.5525   -0.2440 C.3     223        0    0.0000
   1340 C         515.9875   19.6956   -0.0049 C.3     223        0    0.0000
   1341 H         515.2461   17.6964    0.3943 H       223        0    0.0000
   1342 H         515.0659   18.2035   -1.2816 H       223        0    0.0000
   1343 H         515.7524   20.5417   -0.6623 H       223        0    0.0000
   1344 H         515.8977   20.0624    1.0251 H       223        0    0.0000
   1345 C         517.4711   19.2566   -0.2574 C.3     224        0    0.0000
   1346 C         518.4649   20.3958   -0.0048 C.3     224        0    0.0000
   1347 H         517.7031   18.4040    0.3928 H       224        0    0.0000
   1348 H         517.5632   18.8992   -1.2905 H       224        0    0.0000
   1349 H         518.2277   21.2516   -0.6488 H       224        0    0.0000
   1350 H         518.3787   20.7474    1.0308 H       224        0    0.0000
   1351 C         519.9475   19.9603   -0.2689 C.3     225        0    0.0000
   1352 C         520.9378   21.1099   -0.0529 C.3     225        0    0.0000
   1353 H         520.1934   19.1222    0.3950 H       225        0    0.0000
   1354 H         520.0275   19.5827   -1.2958 H       225        0    0.0000
   1355 H         520.6942   21.9464   -0.7195 H       225        0    0.0000
   1356 H         520.8550   21.4901    0.9728 H       225        0    0.0000
   1357 C         522.4210   20.6730   -0.3116 C.3     226        0    0.0000
   1358 C         523.4151   21.8105   -0.0532 C.3     226        0    0.0000
   1359 H         522.6545   19.8159    0.3322 H       226        0    0.0000
   1360 H         522.5108   20.3228   -1.3473 H       226        0    0.0000
   1361 H         523.1795   22.6688   -0.6945 H       226        0    0.0000
   1362 H         523.3275   22.1584    0.9835 H       226        0    0.0000
   1363 C         524.8978   21.3749   -0.3164 C.3     227        0    0.0000
   1364 C         525.8887   22.5229   -0.0937 C.3     227        0    0.0000
   1365 H         525.1419   20.5339    0.3443 H       227        0    0.0000
   1366 H         524.9794   21.0017   -1.3448 H       227        0    0.0000
   1367 H         525.6485   23.3614   -0.7590 H       227        0    0.0000
   1368 H         525.8025   22.9004    0.9327 H       227        0    0.0000
   1369 C         527.3723   22.0849   -0.3481 C.3     228        0    0.0000
   1370 C         528.3648   23.2274   -0.1061 C.3     228        0    0.0000
   1371 H         527.6078   21.2369    0.3068 H       228        0    0.0000
   1372 H         527.4617   21.7210   -1.3792 H       228        0    0.0000
   1373 H         528.1219   24.0799   -0.7524 H       228        0    0.0000
   1374 H         528.2838   23.5832    0.9285 H       228        0    0.0000
   1375 C         529.8469   22.7942   -0.3768 C.3     229        0    0.0000
   1376 C         530.8376   23.9419   -0.1530 C.3     229        0    0.0000
   1377 H         530.0941   21.9505    0.2793 H       229        0    0.0000
   1378 H         529.9249   22.4254   -1.4071 H       229        0    0.0000
   1379 H         530.5978   24.7809   -0.8180 H       229        0    0.0000
   1380 H         530.7509   24.3189    0.8736 H       229        0    0.0000
   1381 C         532.3214   23.5040   -0.4067 C.3     230        0    0.0000
   1382 C         533.3140   24.6456   -0.1609 C.3     230        0    0.0000
   1383 H         532.5558   22.6544    0.2464 H       230        0    0.0000
   1384 H         532.4117   23.1425   -1.4386 H       230        0    0.0000
   1385 H         533.0577   25.5085   -0.7879 H       230        0    0.0000
   1386 H         533.2490   24.9828    0.8810 H       230        0    0.0000
   1387 C         534.7927   24.2225   -0.4637 C.3     231        0    0.0000
   1388 C         535.7833   25.3698   -0.2365 C.3     231        0    0.0000
   1389 H         535.0537   23.3684    0.1734 H       231        0    0.0000
   1390 H         534.8547   23.8720   -1.5014 H       231        0    0.0000
   1391 H         535.5547   26.2034   -0.9120 H       231        0    0.0000
   1392 H         535.6835   25.7560    0.7855 H       231        0    0.0000
   1393 C         537.2692   24.9261   -0.4661 C.3     232        0    0.0000
   1394 C         538.2626   26.0616   -0.1969 C.3     232        0    0.0000
   1395 H         537.4880   24.0720    0.1868 H       232        0    0.0000
   1396 H         537.3762   24.5693   -1.4980 H       232        0    0.0000
   1397 H         537.9158   26.9862   -0.6748 H       232        0    0.0000
   1398 H         538.3185   26.2652    0.8797 H       232        0    0.0000
   1399 C         539.7013   25.7296   -0.7237 C.3     233        0    0.0000
   1400 C         540.6918   26.8706   -0.4662 C.3     233        0    0.0000
   1401 H         540.0521   24.8103   -0.2385 H       233        0    0.0000
   1402 H         539.6439   25.5166   -1.7983 H       233        0    0.0000
   1403 H         540.7245   27.5429   -1.3325 H       233        0    0.0000
   1404 H         540.3580   27.4729    0.3877 H       233        0    0.0000
   1405 C         542.1409   26.3459   -0.1789 C.3     234        0    0.0000
   1406 C         543.1002   27.4750    0.2134 C.3     234        0    0.0000
   1407 H         542.0936   25.5973    0.6216 H       234        0    0.0000
   1408 H         542.5133   25.8291   -1.0720 H       234        0    0.0000
   1409 H         542.5328   28.3456    0.5649 H       234        0    0.0000
   1410 H         543.7361   27.1553    1.0483 H       234        0    0.0000
   1411 C         544.0167   27.9170   -0.9791 C.3     235        0    0.0000
   1412 C         544.7955   29.2000   -0.6685 C.3     235        0    0.0000
   1413 H         544.7126   27.1014   -1.2115 H       235        0    0.0000
   1414 H         543.3927   28.0621   -1.8698 H       235        0    0.0000
   1415 H         544.6472   29.9335   -1.4707 H       235        0    0.0000
   1416 H         544.4136   29.6583    0.2521 H       235        0    0.0000
   1417 C         546.3320   28.9368   -0.5023 C.3     236        0    0.0000
   1418 C         547.1164   30.2258   -0.2337 C.3     236        0    0.0000
   1419 H         546.4821   28.2267    0.3205 H       236        0    0.0000
   1420 H         546.7078   28.4502   -1.4108 H       236        0    0.0000
   1421 H         546.8432   30.9925   -0.9692 H       236        0    0.0000
   1422 H         546.8533   30.6276    0.7527 H       236        0    0.0000
   1423 C         548.6667   30.0006   -0.2905 C.3     237        0    0.0000
   1424 C         549.4482   31.1990    0.2593 C.3     237        0    0.0000
   1425 H         548.9138   29.0967    0.2798 H       237        0    0.0000
   1426 H         548.9579   29.8066   -1.3302 H       237        0    0.0000
   1427 H         549.5292   31.9791   -0.5077 H       237        0    0.0000
   1428 H         548.9093   31.6435    1.1052 H       237        0    0.0000
   1429 C         550.8897   30.8024    0.7308 C.3     238        0    0.0000
   1430 C         551.9727   31.6718    0.0824 C.3     238        0    0.0000
   1431 H         550.9410   30.8900    1.8231 H       238        0    0.0000
   1432 H         551.0621   29.7458    0.4911 H       238        0    0.0000
   1433 H         551.6868   31.9239   -0.9463 H       238        0    0.0000
   1434 H         552.0676   32.6209    0.6245 H       238        0    0.0000
   1435 C         553.3699   30.9613    0.0588 C.3     239        0    0.0000
   1436 C         554.5298   31.9572    0.1669 C.3     239        0    0.0000
   1437 H         553.4142   30.2411    0.8852 H       239        0    0.0000
   1438 H         553.4564   30.3821   -0.8688 H       239        0    0.0000
   1439 H         554.1747   32.9032    0.5941 H       239        0    0.0000
   1440 H         555.2953   31.5703    0.8508 H       239        0    0.0000
   1441 C         555.1944   32.2482   -1.2229 C.3     240        0    0.0000
   1442 C         556.1541   33.4420   -1.1692 C.3     240        0    0.0000
   1443 H         555.7298   31.3497   -1.5539 H       240        0    0.0000
   1444 H         554.4041   32.4338   -1.9608 H       240        0    0.0000
   1445 H         556.0494   34.0499   -2.0764 H       240        0    0.0000
   1446 H         555.8989   34.0921   -0.3231 H       240        0    0.0000
   1447 C         557.6505   32.9956   -1.0299 C.3     241        0    0.0000
   1448 C         558.5732   34.1631   -0.6635 C.3     241        0    0.0000
   1449 H         557.7156   32.2107   -0.2662 H       241        0    0.0000
   1450 H         557.9738   32.5428   -1.9754 H       241        0    0.0000
   1451 H         558.2660   35.0686   -1.2014 H       241        0    0.0000
   1452 H         558.4880   34.3884    0.4068 H       241        0    0.0000
   1453 C         560.0747   33.8615   -0.9984 C.3     242        0    0.0000
   1454 C         561.0388   34.6609   -0.1150 C.3     242        0    0.0000
   1455 H         560.2554   32.7864   -0.8753 H       242        0    0.0000
   1456 H         560.2543   34.0921   -2.0558 H       242        0    0.0000
   1457 H         561.1146   35.6930   -0.4791 H       242        0    0.0000
   1458 H         560.6519   34.7160    0.9101 H       242        0    0.0000
   1459 C         562.4739   34.0308   -0.0802 C.3     243        0    0.0000
   1460 C         563.5758   35.0883   -0.2087 C.3     243        0    0.0000
   1461 H         562.5933   33.4751    0.8580 H       243        0    0.0000
   1462 H         562.5585   33.2988   -0.8929 H       243        0    0.0000
   1463 H         564.3884   34.7100   -0.8411 H       243        0    0.0000
   1464 H         563.1816   35.9840   -0.7045 H       243        0    0.0000
   1465 C         564.1686   35.5006    1.1828 C.3     244        0    0.0000
   1466 C         565.1434   36.6782    1.0730 C.3     244        0    0.0000
   1467 H         563.3423   35.7579    1.8570 H       244        0    0.0000
   1468 H         564.6753   34.6326    1.6225 H       244        0    0.0000
   1469 H         564.6108   37.5775    0.7394 H       244        0    0.0000
   1470 H         565.5662   36.9099    2.0585 H       244        0    0.0000
   1471 C         566.3172   36.3868    0.0755 C.3     245        0    0.0000
   1472 C         567.2621   37.5840   -0.0752 C.3     245        0    0.0000
   1473 H         566.8738   35.5107    0.4306 H       245        0    0.0000
   1474 H         565.8936   36.1168   -0.8998 H       245        0    0.0000
   1475 H         566.6934   38.5208   -0.0255 H       245        0    0.0000
   1476 H         567.9778   37.6054    0.7560 H       245        0    0.0000
   1477 C         568.0574   37.5470   -1.4257 C.3     246        0    0.0000
   1478 C         569.3534   38.3625   -1.3592 C.3     246        0    0.0000
   1479 H         568.2825   36.5025   -1.6748 H       246        0    0.0000
   1480 H         567.4126   37.9299   -2.2263 H       246        0    0.0000
   1481 H         569.5896   38.7745   -2.3481 H       246        0    0.0000
   1482 H         569.2255   39.2177   -0.6840 H       246        0    0.0000
   1483 C         570.5697   37.5059   -0.8649 C.3     247        0    0.0000
   1484 C         571.7977   38.3677   -0.5509 C.3     247        0    0.0000
   1485 H         570.2669   36.9435    0.0269 H       247        0    0.0000
   1486 H         570.8170   36.7654   -1.6356 H       247        0    0.0000
   1487 H         572.7047   37.8839   -0.9341 H       247        0    0.0000
   1488 H         571.7179   39.3360   -1.0604 H       247        0    0.0000
   1489 C         571.9700   38.6185    0.9869 C.3     248        0    0.0000
   1490 C         573.1908   39.4907    1.2999 C.3     248        0    0.0000
   1491 H         571.0593   39.0940    1.3718 H       248        0    0.0000
   1492 H         572.0590   37.6505    1.4952 H       248        0    0.0000
   1493 H         572.8776   40.4018    1.8247 H       248        0    0.0000
   1494 H         573.8715   38.9568    1.9746 H       248        0    0.0000
   1495 C         573.9776   39.8977    0.0065 C.3     249        0    0.0000
   1496 C         575.1210   40.8737    0.3051 C.3     249        0    0.0000
   1497 H         574.3718   38.9904   -0.4678 H       249        0    0.0000
   1498 H         573.2761   40.3471   -0.7073 H       249        0    0.0000
   1499 H         574.8139   41.5869    1.0801 H       249        0    0.0000
   1500 H         575.9861   40.3291    0.7032 H       249        0    0.0000
   1501 C         575.5684   41.6720   -0.9677 C.3     250        0    0.0000
   1502 C         576.9616   42.2899   -0.8058 C.3     250        0    0.0000
   1503 H         575.5547   40.9962   -1.8318 H       250        0    0.0000
   1504 H         574.8297   42.4574   -1.1702 H       250        0    0.0000
   1505 H         576.9305   43.3580   -1.0541 H       250        0    0.0000
   1506 H         577.2855   42.2189    0.2399 H       250        0    0.0000
   1507 C         578.0308   41.5908   -1.7145 C.3     251        0    0.0000
   1508 C         579.4641   41.9016   -1.2693 C.3     251        0    0.0000
   1509 H         577.8574   40.5077   -1.6951 H       251        0    0.0000
   1510 H         577.8801   41.9154   -2.7514 H       251        0    0.0000
   1511 H         579.7740   41.2015   -0.4837 H       251        0    0.0000
   1512 H         580.1572   41.7612   -2.1079 H       251        0    0.0000
   1513 C         579.6142   43.3657   -0.7293 C.3     252        0    0.0000
   1514 C         580.9550   43.5888   -0.0211 C.3     252        0    0.0000
   1515 H         579.5114   44.0644   -1.5688 H       252        0    0.0000
   1516 H         578.7858   43.5755   -0.0414 H       252        0    0.0000
   1517 H         580.8583   44.3883    0.7240 H       252        0    0.0000
   1518 H         581.2474   42.6832    0.5247 H       252        0    0.0000
   1519 C         582.1001   43.9673   -1.0225 C.3     253        0    0.0000
   1520 C         583.4235   44.2613   -0.3075 C.3     253        0    0.0000
   1521 H         582.2326   43.1442   -1.7356 H       253        0    0.0000
   1522 H         581.7853   44.8416   -1.6056 H       253        0    0.0000
   1523 H         583.4761   45.3227   -0.0348 H       253        0    0.0000
   1524 H         583.4796   43.6924    0.6288 H       253        0    0.0000
   1525 C         584.6683   43.9044   -1.1910 C.3     254        0    0.0000
   1526 C         585.9838   44.3672   -0.5552 C.3     254        0    0.0000
   1527 H         584.6890   42.8192   -1.3508 H       254        0    0.0000
   1528 H         584.5449   44.3659   -2.1786 H       254        0    0.0000
   1529 H         585.9952   45.4607   -0.4680 H       254        0    0.0000
   1530 H         586.0698   43.9690    0.4634 H       254        0    0.0000
   1531 C         587.2355   43.9131   -1.3825 C.3     255        0    0.0000
   1532 C         588.4384   44.8394   -1.1717 C.3     255        0    0.0000
   1533 H         587.4962   42.8870   -1.0951 H       255        0    0.0000
   1534 H         586.9652   43.8836   -2.4453 H       255        0    0.0000
   1535 H         589.1183   44.7740   -2.0301 H       255        0    0.0000
   1536 H         588.1040   45.8826   -1.1134 H       255        0    0.0000
   1537 C         589.2356   44.4906    0.1321 C.3     256        0    0.0000
   1538 C         590.0571   45.6782    0.6458 C.3     256        0    0.0000
   1539 H         588.5270   44.1621    0.9026 H       256        0    0.0000
   1540 H         589.8947   43.6382   -0.0738 H       256        0    0.0000
   1541 H         589.6074   46.6204    0.3090 H       256        0    0.0000
   1542 H         590.0450   45.6976    1.7426 H       256        0    0.0000
   1543 C         591.5459   45.6261    0.1577 C.3     257        0    0.0000
   1544 C         592.2686   46.9634    0.3540 C.3     257        0    0.0000
   1545 H         592.0696   44.8318    0.7040 H       257        0    0.0000
   1546 H         591.5609   45.3424   -0.9019 H       257        0    0.0000
   1547 H         592.1060   47.6103   -0.5170 H       257        0    0.0000
   1548 H         591.8530   47.4919    1.2209 H       257        0    0.0000
   1549 C         593.8109   46.7797    0.5660 C.3     258        0    0.0000
   1550 C         594.6304   47.8334   -0.1873 C.3     258        0    0.0000
   1551 H         594.0289   46.8309    1.6400 H       258        0    0.0000
   1552 H         594.0961   45.7736    0.2343 H       258        0    0.0000
   1553 H         594.1896   48.0171   -1.1750 H       258        0    0.0000
   1554 H         594.6028   48.7880    0.3526 H       258        0    0.0000
   1555 C         596.1258   47.4013   -0.3737 C.3     259        0    0.0000
   1556 C         597.1030   48.5378   -0.0533 C.3     259        0    0.0000
   1557 H         596.3276   46.5383    0.2727 H       259        0    0.0000
   1558 H         596.2696   47.0616   -1.4069 H       259        0    0.0000
   1559 H         596.8505   49.4282   -0.6424 H       259        0    0.0000
   1560 H         597.0150   48.8232    1.0023 H       259        0    0.0000
   1561 C         598.5911   48.1425   -0.3477 C.3     260        0    0.0000
   1562 C         599.5340   49.3496   -0.2950 C.3     260        0    0.0000
   1563 H         598.9069   47.3863    0.3817 H       260        0    0.0000
   1564 H         598.6421   47.6680   -1.3355 H       260        0    0.0000
   1565 H         599.3008   50.0449   -1.1109 H       260        0    0.0000
   1566 H         599.3865   49.9017    0.6414 H       260        0    0.0000
   1567 C         601.0411   48.9314   -0.4029 C.3     261        0    0.0000
   1568 C         601.9897   50.0800   -0.0428 C.3     261        0    0.0000
   1569 H         601.2186   48.0751    0.2595 H       261        0    0.0000
   1570 H         601.2398   48.5856   -1.4249 H       261        0    0.0000
   1571 H         601.6386   51.0145   -0.4977 H       261        0    0.0000
   1572 H         601.9925   50.2395    1.0426 H       261        0    0.0000
   1573 C         603.4589   49.8079   -0.5172 C.3     262        0    0.0000
   1574 C         604.3445   51.0541   -0.4084 C.3     262        0    0.0000
   1575 H         603.8799   48.9935    0.0853 H       262        0    0.0000
   1576 H         603.4354   49.4526   -1.5548 H       262        0    0.0000
   1577 H         604.2077   51.6910   -1.2911 H       262        0    0.0000
   1578 H         604.0465   51.6527    0.4613 H       262        0    0.0000
   1579 C         605.8644   50.6931   -0.2764 C.3     263        0    0.0000
   1580 C         606.7121   51.8962    0.1514 C.3     263        0    0.0000
   1581 H         605.9727   49.8790    0.4510 H       263        0    0.0000
   1582 H         606.2205   50.3052   -1.2388 H       263        0    0.0000
   1583 H         606.2378   52.8279   -0.1813 H       263        0    0.0000
   1584 H         606.7701   51.9455    1.2458 H       263        0    0.0000
   1585 C         608.1669   51.8345   -0.4293 C.3     264        0    0.0000
   1586 C         608.8654   53.1982   -0.3925 C.3     264        0    0.0000
   1587 H         608.7457   51.0999    0.1443 H       264        0    0.0000
   1588 H         608.1205   51.4632   -1.4606 H       264        0    0.0000
   1589 H         608.5626   53.7994   -1.2588 H       264        0    0.0000
   1590 H         608.5566   53.7551    0.5008 H       264        0    0.0000
   1591 C         610.4274   53.0659   -0.3905 C.3     265        0    0.0000
   1592 C         611.1124   54.2796    0.2474 C.3     265        0    0.0000
   1593 H         610.7041   52.1514    0.1486 H       265        0    0.0000
   1594 H         610.7728   52.9390   -1.4240 H       265        0    0.0000
   1595 H         611.0499   55.1436   -0.4258 H       265        0    0.0000
   1596 H         610.5930   54.5620    1.1715 H       265        0    0.0000
   1597 C         612.6198   54.0050    0.5786 C.3     266        0    0.0000
   1598 C         613.5511   55.0512   -0.0437 C.3     266        0    0.0000
   1599 H         612.7454   53.9903    1.6683 H       266        0    0.0000
   1600 H         612.8844   53.0035    0.2174 H       266        0    0.0000
   1601 H         613.1674   55.3611   -1.0236 H       266        0    0.0000
   1602 H         613.5779   55.9511    0.5831 H       266        0    0.0000
   1603 C         615.0135   54.5146   -0.2205 C.3     267        0    0.0000
   1604 C         616.0626   55.6174   -0.0406 C.3     267        0    0.0000
   1605 H         615.1852   53.7101    0.5054 H       267        0    0.0000
   1606 H         615.1072   54.0652   -1.2169 H       267        0    0.0000
   1607 H         615.7969   56.4919   -0.6474 H       267        0    0.0000
   1608 H         616.0809   55.9524    1.0039 H       267        0    0.0000
   1609 C         617.5006   55.1408   -0.4435 C.3     268        0    0.0000
   1610 C         618.5060   56.2970   -0.4827 C.3     268        0    0.0000
   1611 H         617.8331   54.3772    0.2705 H       268        0    0.0000
   1612 H         617.4495   54.6533   -1.4250 H       268        0    0.0000
   1613 H         619.1665   56.1917   -1.3524 H       268        0    0.0000
   1614 H         617.9777   57.2510   -0.6020 H       268        0    0.0000
   1615 C         619.3846   56.3645    0.8138 C.3     269        0    0.0000
   1616 C         620.2499   57.6285    0.8639 C.3     269        0    0.0000
   1617 H         618.7256   56.3248    1.6900 H       269        0    0.0000
   1618 H         620.0203   55.4715    0.8571 H       269        0    0.0000
   1619 H         619.6987   58.4786    0.4430 H       269        0    0.0000
   1620 H         620.4792   57.8864    1.9054 H       269        0    0.0000
   1621 C         621.5953   57.4591    0.0774 C.3     270        0    0.0000
   1622 C         622.3239   58.7928   -0.1214 C.3     270        0    0.0000
   1623 H         622.2379   56.7572    0.6230 H       270        0    0.0000
   1624 H         621.3807   56.9991   -0.8952 H       270        0    0.0000
   1625 H         621.5978   59.5940   -0.3078 H       270        0    0.0000
   1626 H         622.8658   59.0653    0.7927 H       270        0    0.0000
   1627 C         623.3389   58.7432   -1.3149 C.3     271        0    0.0000
   1628 C         624.6151   59.5414   -1.0256 C.3     271        0    0.0000
   1629 H         623.5895   57.6956   -1.5227 H       271        0    0.0000
   1630 H         622.8467   59.1338   -2.2142 H       271        0    0.0000
   1631 H         625.2173   59.6314   -1.9382 H       271        0    0.0000
   1632 H         624.3583   60.5619   -0.7157 H       271        0    0.0000
   1633 C         625.4896   58.8782    0.0936 C.3     272        0    0.0000
   1634 C         626.8219   59.6078    0.2985 C.3     272        0    0.0000
   1635 H         624.9180   58.8689    1.0300 H       272        0    0.0000
   1636 H         625.6721   57.8302   -0.1745 H       272        0    0.0000
   1637 H         627.2724   59.3075    1.2526 H       272        0    0.0000
   1638 H         627.5314   59.3233   -0.4884 H       272        0    0.0000
   1639 C         626.6536   61.1664    0.2876 C.3     273        0    0.0000
   1640 C         627.9955   61.8964    0.4110 C.3     273        0    0.0000
   1641 H         626.1490   61.4610   -0.6410 H       273        0    0.0000
   1642 H         625.9904   61.4561    1.1121 H       273        0    0.0000
   1643 H         627.9010   62.7430    1.1024 H       273        0    0.0000
   1644 H         628.7514   61.2249    0.8366 H       273        0    0.0000
   1645 C         628.5121   62.4277   -0.9705 C.3     274        0    0.0000
   1646 C         629.9637   62.9143   -0.8997 C.3     274        0    0.0000
   1647 H         628.4197   61.6266   -1.7143 H       274        0    0.0000
   1648 H         627.8578   63.2431   -1.3028 H       274        0    0.0000
   1649 H         630.0741   63.8511   -1.4597 H       274        0    0.0000
   1650 H         630.2364   63.1346    0.1399 H       274        0    0.0000
   1651 C         630.9723   61.8605   -1.4740 C.3     275        0    0.0000
   1652 C         632.4287   62.2173   -1.1566 C.3     275        0    0.0000
   1653 H         630.7277   60.8745   -1.0597 H       275        0    0.0000
   1654 H         630.8303   61.7901   -2.5596 H       275        0    0.0000
   1655 H         632.6797   61.9010   -0.1366 H       275        0    0.0000
   1656 H         633.1041   61.6749   -1.8298 H       275        0    0.0000
   1657 C         632.7070   63.7540   -1.2921 C.3     276        0    0.0000
   1658 C         634.0833   64.1457   -0.7429 C.3     276        0    0.0000
   1659 H         632.6301   64.0354   -2.3497 H       276        0    0.0000
   1660 H         631.9199   64.3040   -0.7617 H       276        0    0.0000
   1661 H         634.0071   64.3891    0.3240 H       276        0    0.0000
   1662 H         634.7758   63.2986   -0.8242 H       276        0    0.0000
   1663 C         634.6969   65.3743   -1.4990 C.3     277        0    0.0000
   1664 C         636.1893   65.5542   -1.1998 C.3     277        0    0.0000
   1665 H         634.5429   65.2392   -2.5767 H       277        0    0.0000
   1666 H         634.1443   66.2777   -1.2126 H       277        0    0.0000
   1667 H         636.6837   64.5761   -1.1507 H       277        0    0.0000
   1668 H         636.6716   66.1105   -2.0131 H       277        0    0.0000
   1669 C         636.4375   66.3141    0.1487 C.3     278        0    0.0000
   1670 C         637.9287   66.4327    0.4826 C.3     278        0    0.0000
   1671 H         635.9868   67.3120    0.0804 H       278        0    0.0000
   1672 H         635.9126   65.7858    0.9541 H       278        0    0.0000
   1673 H         638.0727   67.1276    1.3193 H       278        0    0.0000
   1674 H         638.3195   65.4611    0.8092 H       278        0    0.0000
   1675 C         638.7734   66.9321   -0.7399 C.3     279        0    0.0000
   1676 C         640.2780   66.7317   -0.5269 C.3     279        0    0.0000
   1677 H         638.4460   66.3953   -1.6388 H       279        0    0.0000
   1678 H         638.5557   67.9938   -0.9101 H       279        0    0.0000
   1679 H         640.4507   65.9729    0.2464 H       279        0    0.0000
   1680 H         640.7413   66.3548   -1.4472 H       279        0    0.0000
   1681 C         640.9999   68.0574   -0.1041 C.3     280        0    0.0000
   1682 C         642.5237   67.9562   -0.2349 C.3     280        0    0.0000
   1683 H         640.6228   68.8791   -0.7254 H       280        0    0.0000
   1684 H         640.7262   68.2943    0.9316 H       280        0    0.0000
   1685 H         642.9502   67.5095    0.6717 H       280        0    0.0000
   1686 H         642.7864   67.2916   -1.0673 H       280        0    0.0000
   1687 C         643.1935   69.3534   -0.4731 C.3     281        0    0.0000
   1688 C         644.7173   69.2524   -0.6030 C.3     281        0    0.0000
   1689 H         642.7675   69.7998   -1.3801 H       281        0    0.0000
   1690 H         642.9302   70.0183    0.3589 H       281        0    0.0000
   1691 H         645.0055   68.2264   -0.8634 H       281        0    0.0000
   1692 H         645.0686   69.8951   -1.4198 H       281        0    0.0000
   1693 C         645.4549   69.6648    0.7174 C.3     282        0    0.0000
   1694 C         646.8915   70.1320    0.4587 C.3     282        0    0.0000
   1695 H         644.8827   70.4620    1.2079 H       282        0    0.0000
   1696 H         645.4554   68.8092    1.4041 H       282        0    0.0000
   1697 H         646.9973   70.4651   -0.5812 H       282        0    0.0000
   1698 H         647.1256   70.9967    1.0919 H       282        0    0.0000
   1699 C         647.9426   69.0027    0.7369 C.3     283        0    0.0000
   1700 C         649.3839   69.5176    0.6550 C.3     283        0    0.0000
   1701 H         647.7509   68.5780    1.7301 H       283        0    0.0000
   1702 H         647.7910   68.1923    0.0131 H       283        0    0.0000
   1703 H         649.6252   70.1042    1.5501 H       283        0    0.0000
   1704 H         650.0842   68.6735    0.6333 H       283        0    0.0000
   1705 C         649.6259   70.4075   -0.6126 C.3     284        0    0.0000
   1706 C         650.9450   71.1840   -0.5340 C.3     284        0    0.0000
   1707 H         649.6198   69.7653   -1.5019 H       284        0    0.0000
   1708 H         648.7853   71.1042   -0.7212 H       284        0    0.0000
   1709 H         650.8552   72.0062    0.1867 H       284        0    0.0000
   1710 H         651.7454   70.5295   -0.1672 H       284        0    0.0000
   1711 C         651.3709   71.7735   -1.9228 C.3     285        0    0.0000
   1712 C         652.7228   72.4929   -1.8585 C.3     285        0    0.0000
   1713 H         651.4133   70.9578   -2.6552 H       285        0    0.0000
   1714 H         650.5925   72.4657   -2.2668 H       285        0    0.0000
   1715 H         653.4529   71.9792   -2.4961 H       285        0    0.0000
   1716 H         652.6251   73.5129   -2.2504 H       285        0    0.0000
   1717 C         653.2889   72.5645   -0.3985 C.3     286        0    0.0000
   1718 C         654.5475   73.4343   -0.3055 C.3     286        0    0.0000
   1719 H         652.5089   72.9595    0.2642 H       286        0    0.0000
   1720 H         653.5090   71.5464   -0.0542 H       286        0    0.0000
   1721 H         655.4084   72.8955   -0.7201 H       286        0    0.0000
   1722 H         654.4231   74.3417   -0.9094 H       286        0    0.0000
   1723 C         654.8745   73.8503    1.1701 C.3     287        0    0.0000
   1724 C         656.1844   74.6393    1.2744 C.3     287        0    0.0000
   1725 H         654.0427   74.4491    1.5613 H       287        0    0.0000
   1726 H         654.9299   72.9459    1.7885 H       287        0    0.0000
   1727 H         656.3252   75.2549    0.3773 H       287        0    0.0000
   1728 H         656.1412   75.3292    2.1263 H       287        0    0.0000
   1729 C         657.4300   73.7028    1.4451 C.3     288        0    0.0000
   1730 C         658.7328   74.3842    1.0120 C.3     288        0    0.0000
   1731 H         657.4984   73.3934    2.4954 H       288        0    0.0000
   1732 H         657.2694   72.7903    0.8577 H       288        0    0.0000
   1733 H         658.6411   75.4724    1.1171 H       288        0    0.0000
   1734 H         659.5558   74.0727    1.6670 H       288        0    0.0000
   1735 C         659.1133   74.0501   -0.4715 C.3     289        0    0.0000
   1736 C         660.3141   74.8669   -0.9613 C.3     289        0    0.0000
   1737 H         659.3317   72.9776   -0.5476 H       289        0    0.0000
   1738 H         658.2427   74.2405   -1.1113 H       289        0    0.0000
   1739 H         660.6839   74.4597   -1.9107 H       289        0    0.0000
   1740 H         660.0093   75.9018   -1.1598 H       289        0    0.0000
   1741 C         661.4893   74.8763    0.0763 C.3     290        0    0.0000
   1742 C         662.1869   76.2389    0.1513 C.3     290        0    0.0000
   1743 H         661.0931   74.6017    1.0617 H       290        0    0.0000
   1744 H         662.2118   74.0986   -0.2008 H       290        0    0.0000
   1745 H         661.9834   76.8164   -0.7589 H       290        0    0.0000
   1746 H         661.7857   76.8212    0.9901 H       290        0    0.0000
   1747 C         663.7387   76.1030    0.3271 C.3     291        0    0.0000
   1748 C         664.4800   77.3936   -0.0386 C.3     291        0    0.0000
   1749 H         663.9540   75.8273    1.3669 H       291        0    0.0000
   1750 H         664.0942   75.2749   -0.2985 H       291        0    0.0000
   1751 H         664.0229   77.8519   -0.9244 H       291        0    0.0000
   1752 H         664.3892   78.1232    0.7758 H       291        0    0.0000
   1753 C         666.0006   77.1443   -0.3263 C.3     292        0    0.0000
   1754 C         666.8758   78.3236    0.1124 C.3     292        0    0.0000
   1755 H         666.3136   76.2300    0.1930 H       292        0    0.0000
   1756 H         666.1315   76.9576   -1.3995 H       292        0    0.0000
   1757 H         666.3388   78.9383    0.8454 H       292        0    0.0000
   1758 H         667.7803   77.9554    0.6121 H       292        0    0.0000
   1759 C         667.2989   79.2306   -1.0943 C.3     293        0    0.0000
   1760 C         668.3026   80.3134   -0.6830 C.3     293        0    0.0000
   1761 H         667.7300   78.5967   -1.8790 H       293        0    0.0000
   1762 H         666.4003   79.6932   -1.5211 H       293        0    0.0000
   1763 H         668.0426   81.2674   -1.1582 H       293        0    0.0000
   1764 H         668.2554   80.4781    0.4006 H       293        0    0.0000
   1765 C         669.7739   79.9388   -1.0735 C.3     294        0    0.0000
   1766 C         670.7972   80.9200   -0.4911 C.3     294        0    0.0000
   1767 H         669.9853   78.9217   -0.7211 H       294        0    0.0000
   1768 H         669.8546   79.9164   -2.1674 H       294        0    0.0000
   1769 H         670.3769   81.9331   -0.4696 H       294        0    0.0000
   1770 H         671.0263   80.6520    0.5477 H       294        0    0.0000
   1771 C         672.1319   80.9438   -1.3129 C.3     295        0    0.0000
   1772 C         673.2529   81.6879   -0.5788 C.3     295        0    0.0000
   1773 H         672.4384   79.9109   -1.5195 H       295        0    0.0000
   1774 H         671.9405   81.4160   -2.2846 H       295        0    0.0000
   1775 H         673.0201   82.7585   -0.5232 H       295        0    0.0000
   1776 H         673.3293   81.3279    0.4546 H       295        0    0.0000
   1777 C         674.6434   81.5089   -1.2803 C.3     296        0    0.0000
   1778 C         675.5952   82.6746   -0.9896 C.3     296        0    0.0000
   1779 H         675.0904   80.5653   -0.9436 H       296        0    0.0000
   1780 H         674.4843   81.4139   -2.3616 H       296        0    0.0000
   1781 H         676.2028   82.8940   -1.8763 H       296        0    0.0000
   1782 H         675.0209   83.5828   -0.7686 H       296        0    0.0000
   1783 C         676.5507   82.3749    0.2163 C.3     297        0    0.0000
   1784 C         677.3400   83.6137    0.6538 C.3     297        0    0.0000
   1785 H         675.9539   81.9939    1.0543 H       297        0    0.0000
   1786 H         677.2404   81.5713   -0.0702 H       297        0    0.0000
   1787 H         676.8719   84.5200    0.2499 H       297        0    0.0000
   1788 H         677.3173   83.7077    1.7466 H       297        0    0.0000
   1789 C         678.8341   83.5634    0.1821 C.3     298        0    0.0000
   1790 C         679.5456   84.9091    0.3617 C.3     298        0    0.0000
   1791 H         679.3575   82.7828    0.7479 H       298        0    0.0000
   1792 H         678.8622   83.2609   -0.8720 H       298        0    0.0000
   1793 H         679.2339   85.6073   -0.4251 H       298        0    0.0000
   1794 H         679.2566   85.3627    1.3179 H       298        0    0.0000
   1795 C         681.1062   84.7662    0.3214 C.3     299        0    0.0000
   1796 C         681.7959   86.0552   -0.1386 C.3     299        0    0.0000
   1797 H         681.4615   84.4855    1.3207 H       299        0    0.0000
   1798 H         681.3683   83.9391   -0.3500 H       299        0    0.0000
   1799 H         681.1470   86.6012   -0.8347 H       299        0    0.0000
   1800 H         681.9657   86.7178    0.7192 H       299        0    0.0000
   1801 C         683.1691   85.7762   -0.8412 C.3     300        0    0.0000
   1802 C         684.2766   86.7121   -0.3444 C.3     300        0    0.0000
   1803 H         683.4517   84.7313   -0.6629 H       300        0    0.0000
   1804 H         683.0408   85.8873   -1.9250 H       300        0    0.0000
   1805 H         684.0031   87.1340    0.6307 H       300        0    0.0000
   1806 H         685.2059   86.1488   -0.1945 H       300        0    0.0000
   1807 C         684.5537   87.8876   -1.3439 C.3     301        0    0.0000
   1808 C         685.6465   88.8354   -0.8372 C.3     301        0    0.0000
   1809 H         684.8420   87.4659   -2.3146 H       301        0    0.0000
   1810 H         683.6207   88.4417   -1.5056 H       301        0    0.0000
   1811 H         685.6667   89.7467   -1.4474 H       301        0    0.0000
   1812 H         685.4255   89.1492    0.1906 H       301        0    0.0000
   1813 C         687.0677   88.1745   -0.8690 C.3     302        0    0.0000
   1814 C         688.1375   89.0662   -0.2291 C.3     302        0    0.0000
   1815 H         687.0209   87.2101   -0.3481 H       302        0    0.0000
   1816 H         687.3333   87.9571   -1.9111 H       302        0    0.0000
   1817 H         688.2151   90.0131   -0.7775 H       302        0    0.0000
   1818 H         687.8499   89.3200    0.7987 H       302        0    0.0000
   1819 C         689.5464   88.3794   -0.2046 C.3     303        0    0.0000
   1820 C         690.6731   89.3755    0.0914 C.3     303        0    0.0000
   1821 H         689.5392   87.5843    0.5513 H       303        0    0.0000
   1822 H         689.7194   87.8925   -1.1723 H       303        0    0.0000
   1823 H         690.3576   90.0793    0.8716 H       303        0    0.0000
   1824 H         691.5510   88.8455    0.4814 H       303        0    0.0000
   1825 C         691.0972   90.1878   -1.1805 C.3     304        0    0.0000
   1826 C         692.1250   91.2780   -0.8573 C.3     304        0    0.0000
   1827 H         691.5073   89.4927   -1.9235 H       304        0    0.0000
   1828 H         690.2018   90.6360   -1.6287 H       304        0    0.0000
   1829 H         691.6415   92.1035   -0.3205 H       304        0    0.0000
   1830 H         692.8993   90.8791   -0.1904 H       304        0    0.0000
   1831 C         692.8124   91.8472   -2.1461 C.3     305        0    0.0000
   1832 C         694.0320   92.7158   -1.8185 C.3     305        0    0.0000
   1833 H         693.1095   91.0087   -2.7881 H       305        0    0.0000
   1834 H         692.0756   92.4312   -2.7113 H       305        0    0.0000
   1835 H         694.9555   92.1607   -2.0247 H       305        0    0.0000
   1836 H         694.0466   93.6026   -2.4642 H       305        0    0.0000
   1837 C         694.0453   93.1806   -0.3214 C.3     306        0    0.0000
   1838 C         695.3142   93.9642    0.0323 C.3     306        0    0.0000
   1839 H         693.1578   93.7978   -0.1348 H       306        0    0.0000
   1840 H         693.9564   92.2977    0.3237 H       306        0    0.0000
   1841 H         695.6705   94.5187   -0.8447 H       306        0    0.0000
   1842 H         695.0928   94.7086    0.8071 H       306        0    0.0000
   1843 C         696.4660   93.0311    0.5424 C.3     307        0    0.0000
   1844 C         697.8051   93.7685    0.6528 C.3     307        0    0.0000
   1845 H         696.1816   92.6196    1.5187 H       307        0    0.0000
   1846 H         696.5609   92.1796   -0.1429 H       307        0    0.0000
   1847 H         697.7400   94.5544    1.4154 H       307        0    0.0000
   1848 H         698.5901   93.0758    0.9806 H       307        0    0.0000
   1849 C         698.2396   94.4178   -0.7062 C.3     308        0    0.0000
   1850 C         699.4990   95.2793   -0.5621 C.3     308        0    0.0000
   1851 H         698.4111   93.6207   -1.4402 H       308        0    0.0000
   1852 H         697.4101   95.0254   -1.0890 H       308        0    0.0000
   1853 H         699.4017   95.9460    0.3037 H       308        0    0.0000
   1854 H         700.3712   94.6415   -0.3721 H       308        0    0.0000
   1855 C         699.7754   96.1460   -1.8387 C.3     309        0    0.0000
   1856 C         700.9687   97.0898   -1.6530 C.3     309        0    0.0000
   1857 H         699.9544   95.4762   -2.6889 H       309        0    0.0000
   1858 H         698.8731   96.7229   -2.0767 H       309        0    0.0000
   1859 H         701.3049   97.4672   -2.6266 H       309        0    0.0000
   1860 H         700.6683   97.9644   -1.0627 H       309        0    0.0000
   1861 C         702.1752   96.3885   -0.9388 C.3     310        0    0.0000
   1862 C         703.3113   97.3673   -0.6219 C.3     310        0    0.0000
   1863 H         701.8149   95.9186   -0.0153 H       310        0    0.0000
   1864 H         702.5443   95.5791   -1.5809 H       310        0    0.0000
   1865 H         703.5297   97.9871   -1.5002 H       310        0    0.0000
   1866 H         703.0054   98.0521    0.1788 H       310        0    0.0000
   1867 C         704.6242   96.6316   -0.1833 C.3     311        0    0.0000
   1868 C         705.6791   97.6010    0.3614 C.3     311        0    0.0000
   1869 H         704.3726   95.8829    0.5780 H       311        0    0.0000
   1870 H         705.0264   96.0828   -1.0440 H       311        0    0.0000
   1871 H         705.1957   98.5138    0.7311 H       311        0    0.0000
   1872 H         706.1976   97.1506    1.2169 H       311        0    0.0000
   1873 C         706.7405   97.9946   -0.7228 C.3     312        0    0.0000
   1874 C         707.4221   99.3313   -0.4099 C.3     312        0    0.0000
   1875 H         707.4904   97.1967   -0.7897 H       312        0    0.0000
   1876 H         706.2455   98.0446   -1.7005 H       312        0    0.0000
   1877 H         707.5643   99.9063   -1.3334 H       312        0    0.0000
   1878 H         706.7810   99.9368    0.2426 H       312        0    0.0000
   1879 C         708.8140   99.1401    0.2856 C.3     313        0    0.0000
   1880 C         709.7747  100.2972   -0.0096 C.3     313        0    0.0000
   1881 H         708.6588   99.0467    1.3676 H       313        0    0.0000
   1882 H         709.2510   98.1925   -0.0529 H       313        0    0.0000
   1883 H         709.6185  100.6643   -1.0316 H       313        0    0.0000
   1884 H         709.5675  101.1389    0.6627 H       313        0    0.0000
   1885 C         711.2767   99.8786    0.1528 C.3     314        0    0.0000
   1886 C         712.2000  101.0878    0.3382 C.3     314        0    0.0000
   1887 H         711.3644   99.2030    1.0128 H       314        0    0.0000
   1888 H         711.5814   99.3046   -0.7311 H       314        0    0.0000
   1889 H         711.7086  101.9964   -0.0313 H       314        0    0.0000
   1890 H         712.3990  101.2490    1.4050 H       314        0    0.0000
   1891 C         713.5663  100.9123   -0.4099 C.3     315        0    0.0000
   1892 C         714.2600  102.2532   -0.6746 C.3     315        0    0.0000
   1893 H         714.2172  100.2641    0.1898 H       315        0    0.0000
   1894 H         713.3862  100.3886   -1.3569 H       315        0    0.0000
   1895 H         714.5870  102.3076   -1.7203 H       315        0    0.0000
   1896 H         713.5538  103.0787   -0.5220 H       315        0    0.0000
   1897 C         715.5027  102.4730    0.2555 C.3     316        0    0.0000
   1898 C         715.9829  103.9285    0.2490 C.3     316        0    0.0000
   1899 H         715.2388  102.1685    1.2759 H       316        0    0.0000
   1900 H         716.3117  101.8085   -0.0723 H       316        0    0.0000
   1901 H         715.1948  104.5828   -0.1437 H       316        0    0.0000
   1902 H         716.1873  104.2617    1.2740 H       316        0    0.0000
   1903 C         717.2776  104.1231   -0.6132 C.3     317        0    0.0000
   1904 C         718.2003  105.2042   -0.0397 C.3     317        0    0.0000
   1905 H         717.8105  103.1660   -0.6718 H       317        0    0.0000
   1906 H         716.9843  104.3836   -1.6377 H       317        0    0.0000
   1907 H         717.6889  106.1748   -0.0412 H       317        0    0.0000
   1908 H         718.4415  104.9769    1.0061 H       317        0    0.0000
   1909 C         719.5362  105.3357   -0.8492 C.3     318        0    0.0000
   1910 C         720.3712  106.5401   -0.4006 C.3     318        0    0.0000
   1911 H         720.1148  104.4113   -0.7294 H       318        0    0.0000
   1912 H         719.2961  105.4209   -1.9163 H       318        0    0.0000
   1913 H         720.0010  107.4543   -0.8811 H       318        0    0.0000
   1914 H         720.2664  106.6884    0.6813 H       318        0    0.0000
   1915 C         721.8915  106.3696   -0.7425 C.3     319        0    0.0000
   1916 C         722.7620  107.4343   -0.0660 C.3     319        0    0.0000
   1917 H         722.2135  105.3678   -0.4323 H       319        0    0.0000
   1918 H         722.0166  106.4177   -1.8313 H       319        0    0.0000
   1919 H         722.5799  108.4150   -0.5229 H       319        0    0.0000
   1920 H         722.4904  107.5249    0.9931 H       319        0    0.0000
   1921 C         724.2911  107.1049   -0.1691 C.3     320        0    0.0000
   1922 C         725.1492  108.3672   -0.3087 C.3     320        0    0.0000
   1923 H         724.5925  106.5420    0.7231 H       320        0    0.0000
   1924 H         724.4531  106.4430   -1.0288 H       320        0    0.0000
   1925 H         725.9779  108.1837   -1.0037 H       320        0    0.0000
   1926 H         724.5527  109.1819   -0.7377 H       320        0    0.0000
   1927 C         725.7373  108.8408    1.0651 C.3     321        0    0.0000
   1928 C         726.6286  110.0792    0.9194 C.3     321        0    0.0000
   1929 H         724.9075  109.0531    1.7506 H       321        0    0.0000
   1930 H         726.3089  108.0160    1.5082 H       321        0    0.0000
   1931 H         726.5229  110.5023   -0.0872 H       321        0    0.0000
   1932 H         726.3091  110.8575    1.6234 H       321        0    0.0000
   1933 C         728.1411  109.7560    1.1757 C.3     322        0    0.0000
   1934 C         729.0639  110.8872    0.7087 C.3     322        0    0.0000
   1935 H         728.2863  109.5701    2.2470 H       322        0    0.0000
   1936 H         728.3963  108.8238    0.6566 H       322        0    0.0000
   1937 H         729.1482  110.8766   -0.3850 H       322        0    0.0000
   1938 H         728.6354  111.8593    0.9822 H       322        0    0.0000
   1939 C         730.5000  110.7759    1.3274 C.3     323        0    0.0000
   1940 C         731.4254  111.9020    0.8533 C.3     323        0    0.0000
   1941 H         730.4161  110.7932    2.4210 H       323        0    0.0000
   1942 H         730.9258  109.8011    1.0594 H       323        0    0.0000
   1943 H         731.7797  111.6946   -0.1640 H       323        0    0.0000
   1944 H         730.8730  112.8487    0.8077 H       323        0    0.0000
   1945 C         732.6666  112.0861    1.7930 C.3     324        0    0.0000
   1946 C         733.5961  113.2070    1.3148 C.3     324        0    0.0000
   1947 H         732.3124  112.2991    2.8092 H       324        0    0.0000
   1948 H         733.2158  111.1377    1.8431 H       324        0    0.0000
   1949 H         733.0516  113.8894    0.6504 H       324        0    0.0000
   1950 H         733.9359  113.8044    2.1700 H       324        0    0.0000
   1951 C         734.8504  112.6547    0.5539 C.3     325        0    0.0000
   1952 C         735.8882  113.7475    0.2747 C.3     325        0    0.0000
   1953 H         735.3009  111.8519    1.1506 H       325        0    0.0000
   1954 H         734.5204  112.1998   -0.3883 H       325        0    0.0000
   1955 H         735.7412  114.5902    0.9616 H       325        0    0.0000
   1956 H         736.8987  113.3627    0.4599 H       325        0    0.0000
   1957 C         735.8113  114.2774   -1.1987 C.3     326        0    0.0000
   1958 C         736.4460  115.6641   -1.3512 C.3     326        0    0.0000
   1959 H         736.3129  113.5594   -1.8594 H       326        0    0.0000
   1960 H         734.7594  114.3090   -1.5086 H       326        0    0.0000
   1961 H         736.0859  116.1436   -2.2698 H       326        0    0.0000
   1962 H         736.1422  116.3105   -0.5184 H       326        0    0.0000
   1963 C         738.0117  115.5994   -1.3954 C.3     327        0    0.0000
   1964 C         738.6608  116.8995   -0.9081 C.3     327        0    0.0000
   1965 H         738.3482  114.7568   -0.7786 H       327        0    0.0000
   1966 H         738.3278  115.3833   -2.4234 H       327        0    0.0000
   1967 H         738.1398  117.7640   -1.3378 H       327        0    0.0000
   1968 H         738.5640  116.9829    0.1815 H       327        0    0.0000
   1969 C         740.1792  116.9843   -1.2886 C.3     328        0    0.0000
   1970 C         741.0469  117.4519   -0.1149 C.3     328        0    0.0000
   1971 H         740.5129  115.9978   -1.6335 H       328        0    0.0000
   1972 H         740.2933  117.6700   -2.1373 H       328        0    0.0000
   1973 H         740.9421  118.5352    0.0223 H       328        0    0.0000
   1974 H         740.7054  116.9821    0.8159 H       328        0    0.0000
   1975 C         742.5630  117.1135   -0.3251 C.3     329        0    0.0000
   1976 C         743.4553  118.3552   -0.2202 C.3     329        0    0.0000
   1977 H         742.8658  116.3685    0.4212 H       329        0    0.0000
   1978 H         742.6873  116.6429   -1.3083 H       329        0    0.0000
   1979 H         743.1505  119.1014   -0.9644 H       329        0    0.0000
   1980 H         743.3333  118.8240    0.7642 H       329        0    0.0000
   1981 C         744.9711  118.0175   -0.4348 C.3     330        0    0.0000
   1982 C         745.8833  119.2025   -0.0994 C.3     330        0    0.0000
   1983 H         745.2325  117.1533    0.1885 H       330        0    0.0000
   1984 H         745.1208  117.7107   -1.4774 H       330        0    0.0000
   1985 H         745.3563  119.9102    0.5525 H       330        0    0.0000
   1986 H         746.7619  118.8550    0.4581 H       330        0    0.0000
   1987 C         746.3671  119.9617   -1.3828 C.3     331        0    0.0000
   1988 C         747.3657  121.0774   -1.0558 C.3     331        0    0.0000
   1989 H         746.8227  119.2386   -2.0706 H       331        0    0.0000
   1990 H         745.4927  120.3785   -1.8977 H       331        0    0.0000
   1991 H         747.6740  121.5882   -1.9764 H       331        0    0.0000
   1992 H         746.8895  121.8340   -0.4200 H       331        0    0.0000
   1993 C         748.6434  120.5361   -0.3263 C.3     332        0    0.0000
   1994 C         749.6165  121.6586    0.0507 C.3     332        0    0.0000
   1995 H         748.3325  119.9900    0.5729 H       332        0    0.0000
   1996 H         749.1423  119.8094   -0.9795 H       332        0    0.0000
   1997 H         750.0213  122.1256   -0.8557 H       332        0    0.0000
   1998 H         749.0872  122.4461    0.6013 H       332        0    0.0000
   1999 C         750.8082  121.1420    0.9284 C.3     333        0    0.0000
   2000 C         751.8264  122.2462    1.2335 C.3     333        0    0.0000
   2001 H         750.4069  120.7317    1.8634 H       333        0    0.0000
   2002 H         751.2989  120.3120    0.4051 H       333        0    0.0000
   2003 H         751.3975  123.2284    0.9992 H       333        0    0.0000
   2004 H         752.0638  122.2534    2.3045 H       333        0    0.0000
   2005 C         753.1560  122.0689    0.4224 C.3     334        0    0.0000
   2006 C         753.9319  123.3835    0.2842 C.3     334        0    0.0000
   2007 H         753.7777  121.3161    0.9226 H       334        0    0.0000
   2008 H         752.9141  121.6689   -0.5701 H       334        0    0.0000
   2009 H         753.4166  124.0526   -0.4161 H       334        0    0.0000
   2010 H         753.9657  123.9035    1.2496 H       334        0    0.0000
   2011 C         755.3990  123.1574   -0.2196 C.3     335        0    0.0000
   2012 C         756.0855  124.4691   -0.6163 C.3     335        0    0.0000
   2013 H         755.9716  122.6575    0.5715 H       335        0    0.0000
   2014 H         755.3773  122.4706   -1.0748 H       335        0    0.0000
   2015 H         756.5579  124.3636   -1.6008 H       335        0    0.0000
   2016 H         755.3417  125.2702   -0.7080 H       335        0    0.0000
   2017 C         757.1747  124.9073    0.4224 C.3     336        0    0.0000
   2018 C         757.5276  126.3940    0.3019 C.3     336        0    0.0000
   2019 H         756.8080  124.6885    1.4330 H       336        0    0.0000
   2020 H         758.0724  124.2945    0.2734 H       336        0    0.0000
   2021 H         756.7584  126.9172   -0.2796 H       336        0    0.0000
   2022 H         757.5420  126.8589    1.2955 H       336        0    0.0000
   2023 C         758.9197  126.6207   -0.3823 C.3     337        0    0.0000
   2024 C         759.6008  127.9066    0.0989 C.3     337        0    0.0000
   2025 H         759.5609  125.7551   -0.1747 H       337        0    0.0000
   2026 H         758.7780  126.6543   -1.4697 H       337        0    0.0000
   2027 H         758.9600  128.7724   -0.1095 H       337        0    0.0000
   2028 H         759.7416  127.8735    1.1864 H       337        0    0.0000
   2029 C         760.9935  128.1327   -0.5842 C.3     338        0    0.0000
   2030 C         761.7367  129.3404   -0.0024 C.3     338        0    0.0000
   2031 H         761.5981  127.2253   -0.4636 H       338        0    0.0000
   2032 H         760.8408  128.2686   -1.6621 H       338        0    0.0000
   2033 H         761.0213  130.1246    0.2745 H       338        0    0.0000
   2034 H         762.2602  129.0523    0.9177 H       338        0    0.0000
   2035 C         762.7779  129.9391   -1.0100 C.3     339        0    0.0000
   2036 C         764.0545  130.4180   -0.3099 C.3     339        0    0.0000
   2037 H         763.0234  129.1765   -1.7595 H       339        0    0.0000
   2038 H         762.3096  130.7717   -1.5493 H       339        0    0.0000
   2039 H         763.8036  131.1398    0.4772 H       339        0    0.0000
   2040 H         764.5522  129.5740    0.1835 H       339        0    0.0000
   2041 C         765.0630  131.0871   -1.3062 C.3     340        0    0.0000
   2042 C         766.2198  131.7838   -0.5812 C.3     340        0    0.0000
   2043 H         765.4530  130.3179   -1.9843 H       340        0    0.0000
   2044 H         764.5195  131.8091   -1.9281 H       340        0    0.0000
   2045 H         766.0043  132.8539   -0.4706 H       340        0    0.0000
   2046 H         766.3278  131.3777    0.4322 H       340        0    0.0000
   2047 C         767.5818  131.6185   -1.3396 C.3     341        0    0.0000
   2048 C         768.7322  132.3434   -0.6323 C.3     341        0    0.0000
   2049 H         767.8094  130.5490   -1.4287 H       341        0    0.0000
   2050 H         767.4667  132.0023   -2.3609 H       341        0    0.0000
   2051 H         768.5171  133.4173   -0.5680 H       341        0    0.0000
   2052 H         768.8293  131.9793    0.3980 H       341        0    0.0000
   2053 C         770.1016  132.1456   -1.3694 C.3     342        0    0.0000
   2054 C         771.0779  133.2959   -1.0994 C.3     342        0    0.0000
   2055 H         770.5427  131.1943   -1.0468 H       342        0    0.0000
   2056 H         769.9137  132.0566   -2.4465 H       342        0    0.0000
   2057 H         771.5903  133.5798   -2.0269 H       342        0    0.0000
   2058 H         770.5294  134.1826   -0.7583 H       342        0    0.0000
   2059 C         772.1535  132.9216   -0.0221 C.3     343        0    0.0000
   2060 C         772.8858  134.1540    0.5203 C.3     343        0    0.0000
   2061 H         771.6605  132.3857    0.7984 H       343        0    0.0000
   2062 H         772.8723  132.2229   -0.4678 H       343        0    0.0000
   2063 H         772.2278  135.0310    0.4788 H       343        0    0.0000
   2064 H         773.1443  134.0037    1.5758 H       343        0    0.0000
   2065 C         774.1962  134.4670   -0.2813 C.3     344        0    0.0000
   2066 C         774.9041  135.7259    0.2316 C.3     344        0    0.0000
   2067 H         774.8682  133.6027   -0.2115 H       344        0    0.0000
   2068 H         773.9424  134.5839   -1.3421 H       344        0    0.0000
   2069 H         774.4596  136.6194   -0.2241 H       344        0    0.0000
   2070 H         774.7631  135.8217    1.3153 H       344        0    0.0000
   2071 C         776.4406  135.7116   -0.0787 C.3     345        0    0.0000
   2072 C         777.0131  137.1238   -0.2434 C.3     345        0    0.0000
   2073 H         776.9603  135.1873    0.7327 H       345        0    0.0000
   2074 H         776.6116  135.1276   -0.9916 H       345        0    0.0000
   2075 H         776.5634  137.6126   -1.1166 H       345        0    0.0000
   2076 H         776.7561  137.7379    0.6286 H       345        0    0.0000
   2077 C         778.5713  137.1170   -0.4151 C.3     346        0    0.0000
   2078 C         779.2264  138.3697    0.1770 C.3     346        0    0.0000
   2079 H         778.9761  136.2178    0.0658 H       346        0    0.0000
   2080 H         778.8090  137.0372   -1.4831 H       346        0    0.0000
   2081 H         778.8749  139.2639   -0.3524 H       346        0    0.0000
   2082 H         778.9307  138.4884    1.2267 H       346        0    0.0000
   2083 C         780.7911  138.3167    0.0958 C.3     347        0    0.0000
   2084 C         781.4077  139.7000   -0.1397 C.3     347        0    0.0000
   2085 H         781.1791  137.8856    1.0270 H       347        0    0.0000
   2086 H         781.0803  137.6333   -0.7122 H       347        0    0.0000
   2087 H         780.9841  140.1514   -1.0454 H       347        0    0.0000
   2088 H         781.1581  140.3698    0.6925 H       347        0    0.0000
   2089 C         782.9671  139.6379   -0.2881 C.3     348        0    0.0000
   2090 C         783.6352  140.9789    0.0349 C.3     348        0    0.0000
   2091 H         783.3546  138.8550    0.3756 H       348        0    0.0000
   2092 H         783.2128  139.3323   -1.3127 H       348        0    0.0000
   2093 H         783.2503  141.7610   -0.6312 H       348        0    0.0000
   2094 H         783.3864  141.2862    1.0583 H       348        0    0.0000
   2095 C         785.1949  140.9155   -0.1086 C.3     349        0    0.0000
   2096 C         785.8438  142.3008   -0.0139 C.3     349        0    0.0000
   2097 H         785.5955  140.2583    0.6732 H       349        0    0.0000
   2098 H         785.4428  140.4489   -1.0700 H       349        0    0.0000
   2099 H         785.4222  142.9666   -0.7771 H       349        0    0.0000
   2100 H         785.6199  142.7553    0.9592 H       349        0    0.0000
   2101 C         787.3995  142.2420   -0.1983 C.3     350        0    0.0000
   2102 C         788.0630  143.6050    0.0278 C.3     350        0    0.0000
   2103 H         787.8107  141.5029    0.5004 H       350        0    0.0000
   2104 H         787.6223  141.8782   -1.2090 H       350        0    0.0000
   2105 H         787.6517  144.3441   -0.6707 H       350        0    0.0000
   2106 H         787.8404  143.9687    1.0386 H       350        0    0.0000
   2107 C         789.6187  143.5463   -0.1569 C.3     351        0    0.0000
   2108 C         790.2825  144.9087    0.0716 C.3     351        0    0.0000
   2109 H         790.0298  142.8058    0.5404 H       351        0    0.0000
   2110 H         789.8412  143.1842   -1.1683 H       351        0    0.0000
   2111 H         789.8791  145.6466   -0.6328 H       351        0    0.0000
   2112 H         790.0510  145.2757    1.0792 H       351        0    0.0000
   2113 C         791.8397  144.8467   -0.0982 C.3     352        0    0.0000
   2114 C         792.4976  146.2207    0.0709 C.3     352        0    0.0000
   2115 H         792.2477  144.1414    0.6363 H       352        0    0.0000
   2116 H         792.0713  144.4382   -1.0897 H       352        0    0.0000
   2117 H         792.0949  146.9241   -0.6684 H       352        0    0.0000
   2118 H         792.2598  146.6324    1.0596 H       352        0    0.0000
   2119 C         794.0557  146.1570   -0.0886 C.3     353        0    0.0000
   2120 C         794.7129  147.5320    0.0736 C.3     353        0    0.0000
   2121 H         794.4589  145.4574    0.6540 H       353        0    0.0000
   2122 H         794.2934  145.7405   -1.0754 H       353        0    0.0000
   2123 H         794.3071  148.2326   -0.6666 H       353        0    0.0000
   2124 H         794.4783  147.9468    1.0617 H       353        0    0.0000
   2125 C         796.2706  147.4692   -0.0912 C.3     354        0    0.0000
   2126 C         796.9293  148.8418    0.0854 C.3     354        0    0.0000
   2127 H         796.6754  146.7606    0.6420 H       354        0    0.0000
   2128 H         796.5051  147.0642   -1.0835 H       354        0    0.0000
   2129 H         796.5236  149.5507   -0.6471 H       354        0    0.0000
   2130 H         796.6956  149.2462    1.0780 H       354        0    0.0000
   2131 C         798.4868  148.7792   -0.0810 C.3     355        0    0.0000
   2132 C         799.1469  150.1490    0.1112 C.3     355        0    0.0000
   2133 H         798.8911  148.0617    0.6437 H       355        0    0.0000
   2134 H         798.7204  148.3856   -1.0780 H       355        0    0.0000
   2135 H         798.7446  150.8657   -0.6154 H       355        0    0.0000
   2136 H         798.9108  150.5439    1.1072 H       355        0    0.0000
   2137 C         800.7049  150.0856   -0.0510 C.3     356        0    0.0000
   2138 C         801.3633  151.4587    0.1228 C.3     356        0    0.0000
   2139 H         801.1086  149.3790    0.6847 H       356        0    0.0000
   2140 H         800.9409  149.6779   -1.0418 H       356        0    0.0000
   2141 H         800.9585  152.1657   -0.6119 H       356        0    0.0000
   2142 H         801.1285  151.8657    1.1142 H       356        0    0.0000
   2143 C         802.9210  151.3957   -0.0416 C.3     357        0    0.0000
   2144 C         803.5793  152.7691    0.1304 C.3     357        0    0.0000
   2145 H         803.3260  150.6897    0.6940 H       357        0    0.0000
   2146 H         803.1558  150.9875   -1.0325 H       357        0    0.0000
   2147 H         803.1691  153.4770   -0.6005 H       357        0    0.0000
   2148 H         803.3503  153.1741    1.1240 H       357        0    0.0000
   2149 C         805.1360  152.7078   -0.0439 C.3     358        0    0.0000
   2150 C         805.7966  154.0771    0.1505 C.3     358        0    0.0000
   2151 H         805.5442  151.9877    0.6760 H       358        0    0.0000
   2152 H         805.3648  152.3183   -1.0436 H       358        0    0.0000
   2153 H         805.3884  154.7972   -0.5695 H       358        0    0.0000
   2154 H         805.5675  154.4668    1.1501 H       358        0    0.0000
   2155 C         807.3533  154.0158   -0.0235 C.3     359        0    0.0000
   2156 C         808.0129  155.3867    0.1623 C.3     359        0    0.0000
   2157 H         807.7621  153.3005    0.7008 H       359        0    0.0000
   2158 H         807.5822  153.6202   -1.0207 H       359        0    0.0000
   2159 H         807.6061  156.1014   -0.5639 H       359        0    0.0000
   2160 H         807.7815  155.7837    1.1585 H       359        0    0.0000
   2161 C         809.5701  155.3247   -0.0078 C.3     360        0    0.0000
   2162 C         810.2275  156.6993    0.1570 C.3     360        0    0.0000
   2163 H         809.9785  154.6217    0.7287 H       360        0    0.0000
   2164 H         809.8015  154.9133   -0.9981 H       360        0    0.0000
   2165 H         809.8187  157.4026   -0.5792 H       360        0    0.0000
   2166 H         809.9967  157.1105    1.1475 H       360        0    0.0000
   2167 C         811.7847  156.6375   -0.0140 C.3     361        0    0.0000
   2168 C         812.4427  158.0112    0.1560 C.3     361        0    0.0000
   2169 H         812.1931  155.9314    0.7196 H       361        0    0.0000
   2170 H         812.0154  156.2299   -1.0060 H       361        0    0.0000
   2171 H         812.0328  158.7178   -0.5763 H       361        0    0.0000
   2172 H         812.2133  158.4179    1.1487 H       361        0    0.0000
   2173 C         813.9995  157.9498   -0.0176 C.3     362        0    0.0000
   2174 C         814.6581  159.3225    0.1582 C.3     362        0    0.0000
   2175 H         814.4089  157.2400    0.7118 H       362        0    0.0000
   2176 H         814.2288  157.5471   -1.0120 H       362        0    0.0000
   2177 H         814.2463  160.0333   -0.5689 H       362        0    0.0000
   2178 H         814.4316  159.7236    1.1539 H       362        0    0.0000
   2179 C         816.2145  159.2620   -0.0202 C.3     363        0    0.0000
   2180 C         816.8734  160.6343    0.1576 C.3     363        0    0.0000
   2181 H         816.6262  158.5501    0.7059 H       363        0    0.0000
   2182 H         816.4409  158.8622   -1.0164 H       363        0    0.0000
   2183 H         816.4617  161.3461   -0.5687 H       363        0    0.0000
   2184 H         816.6467  161.0342    1.1537 H       363        0    0.0000
   2185 C         818.4296  160.5737   -0.0206 C.3     364        0    0.0000
   2186 C         819.0880  161.9469    0.1527 C.3     364        0    0.0000
   2187 H         818.8416  159.8644    0.7079 H       364        0    0.0000
   2188 H         818.6562  160.1708   -1.0155 H       364        0    0.0000
   2189 H         818.6774  162.6557   -0.5770 H       364        0    0.0000
   2190 H         818.8598  162.3507    1.1469 H       364        0    0.0000
   2191 C         820.6447  161.8858   -0.0228 C.3     365        0    0.0000
   2192 C         821.3016  163.2613    0.1370 C.3     365        0    0.0000
   2193 H         821.0563  161.1845    0.7136 H       365        0    0.0000
   2194 H         820.8729  161.4727   -1.0131 H       365        0    0.0000
   2195 H         820.8911  163.9622   -0.6003 H       365        0    0.0000
   2196 H         821.0720  163.6750    1.1268 H       365        0    0.0000
   2197 C         822.8584  163.1999   -0.0364 C.3     366        0    0.0000
   2198 C         823.5153  164.5755    0.1228 C.3     366        0    0.0000
   2199 H         823.2690  162.4993    0.7012 H       366        0    0.0000
   2200 H         823.0878  162.7857   -1.0260 H       366        0    0.0000
   2201 H         823.1042  165.2762   -0.6145 H       366        0    0.0000
   2202 H         823.2863  164.9894    1.1126 H       366        0    0.0000
   2203 C         825.0720  164.5142   -0.0515 C.3     367        0    0.0000
   2204 C         825.7291  165.8896    0.1092 C.3     367        0    0.0000
   2205 H         825.4829  163.8127    0.6851 H       367        0    0.0000
   2206 H         825.3010  164.1013   -1.0418 H       367        0    0.0000
   2207 H         825.3153  166.5921   -0.6249 H       367        0    0.0000
   2208 H         825.5032  166.3008    1.1009 H       367        0    0.0000
   2209 C         827.2852  165.8292   -0.0705 C.3     368        0    0.0000
   2210 C         827.9429  167.2035    0.0966 C.3     368        0    0.0000
   2211 H         827.6984  165.1231    0.6604 H       368        0    0.0000
   2212 H         827.5109  165.4224   -1.0640 H       368        0    0.0000
   2213 H         827.5259  167.9109   -0.6308 H       368        0    0.0000
   2214 H         827.7214  167.6079    1.0920 H       368        0    0.0000
   2215 C         829.4982  167.1444   -0.0904 C.3     369        0    0.0000
   2216 C         830.1569  168.5170    0.0860 C.3     369        0    0.0000
   2217 H         829.9145  166.4317    0.6323 H       369        0    0.0000
   2218 H         829.7195  166.7464   -1.0885 H       369        0    0.0000
   2219 H         829.7422  169.2291   -0.6382 H       369        0    0.0000
   2220 H         829.9339  168.9159    1.0833 H       369        0    0.0000
   2221 C         831.7126  168.4574   -0.0980 C.3     370        0    0.0000
   2222 C         832.3704  169.8315    0.0696 C.3     370        0    0.0000
   2223 H         832.1279  167.7501    0.6305 H       370        0    0.0000
   2224 H         831.9357  168.0524   -1.0929 H       370        0    0.0000
   2225 H         831.9548  170.5388   -0.6588 H       370        0    0.0000
   2226 H         832.1475  170.2364    1.0645 H       370        0    0.0000
   2227 C         833.9260  169.7719   -0.1147 C.3     371        0    0.0000
   2228 C         834.5828  171.1477    0.0439 C.3     371        0    0.0000
   2229 H         834.3423  169.0697    0.6182 H       371        0    0.0000
   2230 H         834.1490  169.3608   -1.1070 H       371        0    0.0000
   2231 H         834.1659  171.8502   -0.6883 H       371        0    0.0000
   2232 H         834.3606  171.5584    1.0366 H       371        0    0.0000
   2233 C         836.1383  171.0883   -0.1417 C.3     372        0    0.0000
   2234 C         836.7958  172.4629    0.0233 C.3     372        0    0.0000
   2235 H         836.5547  170.3822    0.5874 H       372        0    0.0000
   2236 H         836.3605  170.6820   -1.1362 H       372        0    0.0000
   2237 H         836.3793  173.1691   -0.7056 H       372        0    0.0000
   2238 H         836.5737  172.8692    1.0179 H       372        0    0.0000
   2239 C         838.3513  172.4036   -0.1625 C.3     373        0    0.0000
   2240 C         839.0082  173.7792   -0.0030 C.3     373        0    0.0000
   2241 H         838.7682  171.7005    0.5691 H       373        0    0.0000
   2242 H         838.5733  171.9937   -1.1556 H       373        0    0.0000
   2243 H         838.5916  174.4821   -0.7350 H       373        0    0.0000
   2244 H         838.7855  174.1894    0.9899 H       373        0    0.0000
   2245 C         840.5637  173.7198   -0.1880 C.3     374        0    0.0000
   2246 C         841.2203  175.0957   -0.0306 C.3     374        0    0.0000
   2247 H         840.9804  173.0180    0.5452 H       374        0    0.0000
   2248 H         840.7864  173.3079   -1.1801 H       374        0    0.0000
   2249 H         840.8057  175.7966   -0.7657 H       374        0    0.0000
   2250 H         840.9952  175.5088    0.9604 H       374        0    0.0000
   2251 C         842.7764  175.0355   -0.2115 C.3     375        0    0.0000
   2252 C         843.4325  176.4122   -0.0588 C.3     375        0    0.0000
   2253 H         843.1913  174.3372    0.5258 H       375        0    0.0000
   2254 H         843.0015  174.6193   -1.2012 H       375        0    0.0000
   2255 H         843.0163  177.1110   -0.7949 H       375        0    0.0000
   2256 H         843.2089  176.8277    0.9316 H       375        0    0.0000
   2257 C         844.9882  176.3525   -0.2421 C.3     376        0    0.0000
   2258 C         845.6441  177.7295   -0.0912 C.3     376        0    0.0000
   2259 H         845.4045  175.6547    0.4950 H       376        0    0.0000
   2260 H         845.2119  175.9357   -1.2319 H       376        0    0.0000
   2261 H         845.2308  178.4261   -0.8311 H       376        0    0.0000
   2262 H         845.4171  178.1481    0.8971 H       376        0    0.0000
   2263 C         847.2006  177.6688   -0.2687 C.3     377        0    0.0000
   2264 C         847.8566  179.0457   -0.1169 C.3     377        0    0.0000
   2265 H         847.6138  176.9717    0.4706 H       377        0    0.0000
   2266 H         847.4277  177.2509   -1.2573 H       377        0    0.0000
   2267 H         847.4427  179.7430   -0.8559 H       377        0    0.0000
   2268 H         847.6299  179.4634    0.8719 H       377        0    0.0000
   2269 C         849.4128  178.9851   -0.2952 C.3     378        0    0.0000
   2270 C         850.0678  180.3635   -0.1530 C.3     378        0    0.0000
   2271 H         849.8273  178.2932    0.4484 H       378        0    0.0000
   2272 H         849.6396  178.5608   -1.2811 H       378        0    0.0000
   2273 H         849.6599  181.0529   -0.9025 H       378        0    0.0000
   2274 H         849.8336  180.7917    0.8295 H       378        0    0.0000
   2275 C         851.6254  180.3010   -0.3187 C.3     379        0    0.0000
   2276 C         852.2808  181.6788   -0.1727 C.3     379        0    0.0000
   2277 H         852.0331  179.6094    0.4290 H       379        0    0.0000
   2278 H         851.8596  179.8754   -1.3024 H       379        0    0.0000
   2279 H         851.8604  182.3751   -0.9089 H       379        0    0.0000
   2280 H         852.0612  182.0968    0.8175 H       379        0    0.0000
   2281 C         853.8358  181.6202   -0.3630 C.3     380        0    0.0000
   2282 C         854.4904  182.9990   -0.2235 C.3     380        0    0.0000
   2283 H         854.2566  180.9275    0.3763 H       380        0    0.0000
   2284 H         854.0554  181.1977   -1.3513 H       380        0    0.0000
   2285 H         855.5820  182.8954   -0.1905 H       380        0    0.0000
   2286 H         854.2589  183.6158   -1.1007 H       380        0    0.0000
   2287 C         854.0151  183.7546    1.0651 C.3     381        0    0.0000
   2288 C         854.6601  185.1387    1.1979 C.3     381        0    0.0000
   2289 H         852.9226  183.8499    1.0365 H       381        0    0.0000
   2290 H         854.2551  183.1420    1.9430 H       381        0    0.0000
   2291 H         853.8848  185.9145    1.2182 H       381        0    0.0000
   2292 H         855.2032  185.2109    2.1484 H       381        0    0.0000
   2293 C         855.6526  185.4466    0.0242 C.3     382        0    0.0000
   2294 C         856.5317  186.6687    0.3124 C.3     382        0    0.0000
   2295 H         856.2806  184.5639   -0.1487 H       382        0    0.0000
   2296 H         855.0749  185.6071   -0.8945 H       382        0    0.0000
   2297 H         855.9677  187.4091    0.8932 H       382        0    0.0000
   2298 H         857.3927  186.3763    0.9261 H       382        0    0.0000
   2299 C         857.0541  187.3476   -1.0004 C.3     383        0    0.0000
   2300 C         858.3942  188.0618   -0.7914 C.3     383        0    0.0000
   2301 H         857.1537  186.5814   -1.7792 H       383        0    0.0000
   2302 H         856.2992  188.0605   -1.3544 H       383        0    0.0000
   2303 H         858.3740  189.0475   -1.2724 H       383        0    0.0000
   2304 H         858.5644  188.2365    0.2782 H       383        0    0.0000
   2305 C         859.6002  187.2428   -1.3679 C.3     384        0    0.0000
   2306 C         860.9514  187.8809   -1.0273 C.3     384        0    0.0000
   2307 H         859.5559  186.2211   -0.9706 H       384        0    0.0000
   2308 H         859.4855  187.1629   -2.4560 H       384        0    0.0000
   2309 H         861.4875  187.2601   -0.2986 H       384        0    0.0000
   2310 H         861.5814  187.9290   -1.9241 H       384        0    0.0000
   2311 C         860.7950  189.3265   -0.4415 C.3     385        0    0.0000
   2312 C         862.1468  190.0184   -0.2336 C.3     385        0    0.0000
   2313 H         860.1704  189.9182   -1.1221 H       385        0    0.0000
   2314 H         860.2533  189.2656    0.5106 H       385        0    0.0000
   2315 H         862.5194  189.8195    0.7789 H       385        0    0.0000
   2316 H         862.8899  189.6087   -0.9289 H       385        0    0.0000
   2317 C         862.0590  191.5693   -0.4442 C.3     386        0    0.0000
   2318 C         863.4417  192.2158   -0.5833 C.3     386        0    0.0000
   2319 H         861.4576  191.7711   -1.3391 H       386        0    0.0000
   2320 H         861.5206  192.0113    0.4034 H       386        0    0.0000
   2321 H         864.1660  191.4789   -0.9520 H       386        0    0.0000
   2322 H         863.4068  193.0222   -1.3262 H       386        0    0.0000
   2323 C         863.9630  192.8013    0.7742 C.3     387        0    0.0000
   2324 C         865.4689  193.0855    0.7441 C.3     387        0    0.0000
   2325 H         863.4108  193.7226    0.9973 H       387        0    0.0000
   2326 H         863.7301  192.0920    1.5780 H       387        0    0.0000
   2327 H         865.7494  193.7181    1.5954 H       387        0    0.0000
   2328 H         866.0305  192.1490    0.8490 H       387        0    0.0000
   2329 C         865.9131  193.7954   -0.5811 C.3     388        0    0.0000
   2330 C         867.4154  193.6454   -0.8451 C.3     388        0    0.0000
   2331 H         865.3405  193.3746   -1.4168 H       388        0    0.0000
   2332 H         865.6462  194.8578   -0.5197 H       388        0    0.0000
   2333 H         867.8138  192.7951   -0.2778 H       388        0    0.0000
   2334 H         867.5908  193.4265   -1.9056 H       388        0    0.0000
   2335 C         868.2188  194.9338   -0.4554 C.3     389        0    0.0000
   2336 C         869.7334  194.6992   -0.4658 C.3     389        0    0.0000
   2337 H         867.9578  195.7381   -1.1542 H       389        0    0.0000
   2338 H         867.8961  195.2641    0.5398 H       389        0    0.0000
   2339 H         870.0534  194.2650    0.4895 H       389        0    0.0000
   2340 H         869.9963  193.9736   -1.2455 H       389        0    0.0000
   2341 C         870.5377  196.0217   -0.7144 C.3     390        0    0.0000
   2342 C         872.0046  195.8984   -0.2877 C.3     390        0    0.0000
   2343 H         870.4760  196.2781   -1.7793 H       390        0    0.0000
   2344 H         870.0535  196.8386   -0.1650 H       390        0    0.0000
   2345 H         872.0726  195.8089    0.8036 H       390        0    0.0000
   2346 H         872.4426  194.9839   -0.7066 H       390        0    0.0000
   2347 C         872.8627  197.1267   -0.7485 C.3     391        0    0.0000
   2348 C         874.2169  197.1901   -0.0336 C.3     391        0    0.0000
   2349 H         873.0125  197.0663   -1.8335 H       391        0    0.0000
   2350 H         872.2943  198.0459   -0.5595 H       391        0    0.0000
   2351 H         874.0966  197.6359    0.9615 H       391        0    0.0000
   2352 H         874.6088  196.1770    0.1203 H       391        0    0.0000
   2353 C         875.2740  198.0242   -0.8365 C.3     392        0    0.0000
   2354 C         876.2686  198.7409    0.0836 C.3     392        0    0.0000
   2355 H         875.8096  197.3529   -1.5191 H       392        0    0.0000
   2356 H         874.7467  198.7548   -1.4623 H       392        0    0.0000
   2357 H         875.7567  199.5291    0.6495 H       392        0    0.0000
   2358 H         876.6740  198.0366    0.8205 H       392        0    0.0000
   2359 C         877.4584  199.3810   -0.7116 C.3     393        0    0.0000
   2360 C         878.2872  200.3373    0.1531 C.3     393        0    0.0000
   2361 H         878.0961  198.5777   -1.1012 H       393        0    0.0000
   2362 H         877.0558  199.9139   -1.5820 H       393        0    0.0000
   2363 H         877.7953  201.3163    0.2083 H       393        0    0.0000
   2364 H         878.3492  199.9575    1.1804 H       393        0    0.0000
   2365 C         879.7401  200.5324   -0.4022 C.3     394        0    0.0000
   2366 C         880.3741  201.8429    0.0770 C.3     394        0    0.0000
   2367 H         880.3557  199.6801   -0.0890 H       394        0    0.0000
   2368 H         879.7056  200.5100   -1.4985 H       394        0    0.0000
   2369 H         879.8262  202.6989   -0.3360 H       394        0    0.0000
   2370 H         880.3007  201.9190    1.1690 H       394        0    0.0000
   2371 C         881.8814  201.9601   -0.3375 C.3     395        0    0.0000
   2372 C         882.5028  203.2905    0.1018 C.3     395        0    0.0000
   2373 H         882.4355  201.1223    0.1036 H       395        0    0.0000
   2374 H         881.9583  201.8503   -1.4263 H       395        0    0.0000
   2375 H         881.9211  204.1287   -0.3013 H       395        0    0.0000
   2376 H         882.4677  203.3794    1.1947 H       395        0    0.0000
   2377 C         883.9910  203.4354   -0.3694 C.3     396        0    0.0000
   2378 C         884.5927  204.7915    0.0155 C.3     396        0    0.0000
   2379 H         884.5820  202.6230    0.0712 H       396        0    0.0000
   2380 H         884.0320  203.3008   -1.4574 H       396        0    0.0000
   2381 H         884.0403  205.6014   -0.4770 H       396        0    0.0000
   2382 H         884.4935  204.9540    1.0959 H       396        0    0.0000
   2383 C         886.1069  204.9020   -0.3752 C.3     397        0    0.0000
   2384 C         886.7367  206.2137    0.1062 C.3     397        0    0.0000
   2385 H         886.6455  204.0471    0.0519 H       397        0    0.0000
   2386 H         886.1977  204.8189   -1.4653 H       397        0    0.0000
   2387 H         886.1550  207.0677   -0.2622 H       397        0    0.0000
   2388 H         886.7104  206.2637    1.2018 H       397        0    0.0000
   2389 C         888.2217  206.3701   -0.3713 C.3     398        0    0.0000
   2390 C         888.8120  207.7338    0.0042 C.3     398        0    0.0000
   2391 H         888.8220  205.5656    0.0714 H       398        0    0.0000
   2392 H         888.2600  206.2300   -1.4587 H       398        0    0.0000
   2393 H         888.3101  208.5292   -0.5606 H       398        0    0.0000
   2394 H         888.6339  207.9412    1.0666 H       398        0    0.0000
   2395 C         890.3528  207.8112   -0.2743 C.3     399        0    0.0000
   2396 C         890.9450  209.1712    0.1112 C.3     399        0    0.0000
   2397 H         890.8538  207.0108    0.2843 H       399        0    0.0000
   2398 H         890.5303  207.6115   -1.3383 H       399        0    0.0000
   2399 H         890.4744  209.9673   -0.4789 H       399        0    0.0000
   2400 H         890.7297  209.3905    1.1643 H       399        0    0.0000
   2401 C         892.4961  209.2280   -0.1099 C.3     400        0    0.0000
   2402 C         893.0376  210.6609   -0.0613 C.3     400        0    0.0000
   2403 H         892.9852  208.6148    0.6570 H       400        0    0.0000
   2404 H         892.7322  208.7692   -1.0780 H       400        0    0.0000
   2405 H         892.6056  211.2542   -0.8767 H       400        0    0.0000
   2406 H         892.7355  211.1457    0.8753 H       400        0    0.0000
   2407 C         894.6005  210.7095   -0.1742 C.3     401        0    0.0000
   2408 C         895.1537  212.1246    0.0274 C.3     401        0    0.0000
   2409 H         895.0302  210.0280    0.5705 H       401        0    0.0000
   2410 H         894.8959  210.3269   -1.1590 H       401        0    0.0000
   2411 H         894.6938  212.8142   -0.6913 H       401        0    0.0000
   2412 H         894.8923  212.4917    1.0277 H       401        0    0.0000
   2413 C         896.7112  212.1832   -0.1415 C.3     402        0    0.0000
   2414 C         897.2471  213.6184   -0.0927 C.3     402        0    0.0000
   2415 H         897.1755  211.5812    0.6494 H       402        0    0.0000
   2416 H         896.9814  211.7130   -1.0951 H       402        0    0.0000
   2417 H         896.8110  214.2106   -0.9068 H       402        0    0.0000
   2418 H         896.9448  214.1011    0.8449 H       402        0    0.0000
   2419 C         898.8094  213.6733   -0.2084 C.3     403        0    0.0000
   2420 C         899.3599  215.0846    0.0251 C.3     403        0    0.0000
   2421 H         899.2427  212.9755    0.5189 H       403        0    0.0000
   2422 H         899.1031  213.3147   -1.2027 H       403        0    0.0000
   2423 H         898.9099  215.7865   -0.6878 H       403        0    0.0000
   2424 H         899.0850  215.4344    1.0279 H       403        0    0.0000
   2425 C         900.9194  215.1458   -0.1216 C.3     404        0    0.0000
   2426 C         901.4510  216.5826   -0.0776 C.3     404        0    0.0000
   2427 H         901.3737  214.5519    0.6811 H       404        0    0.0000
   2428 H         901.2046  214.6679   -1.0671 H       404        0    0.0000
   2429 H         901.0008  217.1751   -0.8836 H       404        0    0.0000
   2430 H         901.1613  217.0621    0.8656 H       404        0    0.0000
   2431 C         903.0113  216.6433   -0.2168 C.3     405        0    0.0000
   2432 C         903.5591  218.0582   -0.0001 C.3     405        0    0.0000
   2433 H         903.4582  215.9518    0.5081 H       405        0    0.0000
   2434 H         903.2918  216.2798   -1.2132 H       405        0    0.0000
   2435 H         903.1111  218.7501   -0.7240 H       405        0    0.0000
   2436 H         903.2800  218.4211    0.9969 H       405        0    0.0000
   2437 C         905.1192  218.1193   -0.1415 C.3     406        0    0.0000
   2438 C         905.6606  219.5454    0.0079 C.3     406        0    0.0000
   2439 H         905.5688  217.4651    0.6158 H       406        0    0.0000
   2440 H         905.4019  217.7101   -1.1193 H       406        0    0.0000
   2441 H         905.2072  220.2007   -0.7461 H       406        0    0.0000
   2442 H         905.3821  219.9528    0.9877 H       406        0    0.0000
   2443 C         907.2199  219.6076   -0.1406 C.3     407        0    0.0000
   2444 C         907.7638  221.0297    0.0343 C.3     407        0    0.0000
   2445 H         907.6727  218.9378    0.6010 H       407        0    0.0000
   2446 H         907.4968  219.2176   -1.1279 H       407        0    0.0000
   2447 H         907.3142  221.6986   -0.7100 H       407        0    0.0000
   2448 H         907.4833  221.4212    1.0200 H       407        0    0.0000
   2449 C         909.3238  221.0909   -0.1083 C.3     408        0    0.0000
   2450 C         909.8665  222.5151    0.0537 C.3     408        0    0.0000
   2451 H         909.7737  220.4293    0.6422 H       408        0    0.0000
   2452 H         909.6050  220.6906   -1.0903 H       408        0    0.0000
   2453 H         909.4158  223.1770   -0.6962 H       408        0    0.0000
   2454 H         909.5861  222.9150    1.0360 H       408        0    0.0000
   2455 C         911.4263  222.5765   -0.0905 C.3     409        0    0.0000
   2456 C         911.9689  224.0008    0.0710 C.3     409        0    0.0000
   2457 H         911.8770  221.9150    0.6597 H       409        0    0.0000
   2458 H         911.7067  222.1763   -1.0727 H       409        0    0.0000
   2459 H         911.5187  224.6622   -0.6797 H       409        0    0.0000
   2460 H         911.6879  224.4014    1.0528 H       409        0    0.0000
   2461 C         913.5288  224.0621   -0.0721 C.3     410        0    0.0000
   2462 C         914.0721  225.4854    0.0960 C.3     410        0    0.0000
   2463 H         913.9788  223.3969    0.6752 H       410        0    0.0000
   2464 H         913.8094  223.6661   -1.0560 H       410        0    0.0000
   2465 H         913.6226  226.1503   -0.6518 H       410        0    0.0000
   2466 H         913.7908  225.8816    1.0796 H       410        0    0.0000
   2467 C         915.6321  225.5465   -0.0461 C.3     411        0    0.0000
   2468 C         916.1747  226.9708    0.1151 C.3     411        0    0.0000
   2469 H         916.0817  224.8854    0.7052 H       411        0    0.0000
   2470 H         915.9136  225.1455   -1.0276 H       411        0    0.0000
   2471 H         915.7252  227.6318   -0.6363 H       411        0    0.0000
   2472 H         915.8928  227.3719    1.0965 H       411        0    0.0000
   2473 C         917.7347  227.0319   -0.0267 C.3     412        0    0.0000
   2474 C         918.2779  228.4552    0.1409 C.3     412        0    0.0000
   2475 H         918.1841  226.3672    0.7216 H       412        0    0.0000
   2476 H         918.0162  226.6352   -1.0100 H       412        0    0.0000
   2477 H         917.8293  229.1196   -0.6080 H       412        0    0.0000
   2478 H         917.9954  228.8523    1.1238 H       412        0    0.0000
   2479 C         919.8381  228.5160    0.0008 C.3     413        0    0.0000
   2480 C         920.3813  229.9394    0.1683 C.3     413        0    0.0000
   2481 H         920.2865  227.8517    0.7498 H       413        0    0.0000
   2482 H         920.1205  228.1188   -0.9820 H       413        0    0.0000
   2483 H         919.9340  230.6034   -0.5818 H       413        0    0.0000
   2484 H         920.0973  230.3372    1.1505 H       413        0    0.0000
   2485 C         921.9417  229.9998    0.0305 C.3     414        0    0.0000
   2486 C         922.4844  231.4239    0.1934 C.3     414        0    0.0000
   2487 H         922.3889  229.3384    0.7828 H       414        0    0.0000
   2488 H         922.2258  229.5989   -0.9504 H       414        0    0.0000
   2489 H         922.0386  232.0849   -0.5603 H       414        0    0.0000
   2490 H         922.1984  231.8257    1.1734 H       414        0    0.0000
   2491 C         924.0451  231.4839    0.0586 C.3     415        0    0.0000
   2492 C         924.5876  232.9084    0.2186 C.3     415        0    0.0000
   2493 H         924.4909  230.8247    0.8137 H       415        0    0.0000
   2494 H         924.3312  231.0802   -0.9205 H       415        0    0.0000
   2495 H         924.1409  233.5680   -0.5358 H       415        0    0.0000
   2496 H         924.3024  233.3117    1.1982 H       415        0    0.0000
   2497 C         926.1481  232.9687    0.0821 C.3     416        0    0.0000
   2498 C         926.6921  234.3907    0.2581 C.3     416        0    0.0000
   2499 H         926.5944  232.3002    0.8288 H       416        0    0.0000
   2500 H         926.4324  232.5763   -0.9021 H       416        0    0.0000
   2501 H         926.2445  235.0596   -0.4875 H       416        0    0.0000
   2502 H         926.4091  234.7826    1.2430 H       416        0    0.0000
   2503 C         928.2524  234.4514    0.1194 C.3     417        0    0.0000
   2504 C         928.7972  235.8718    0.3053 C.3     417        0    0.0000
   2505 H         928.6996  233.7770    0.8601 H       417        0    0.0000
   2506 H         928.5348  234.0664   -0.8683 H       417        0    0.0000
   2507 H         928.3533  236.5453   -0.4383 H       417        0    0.0000
   2508 H         928.5110  236.2585    1.2912 H       417        0    0.0000
   2509 C         930.3582  235.9314    0.1729 C.3     418        0    0.0000
   2510 C         930.8936  237.3653    0.2527 C.3     418        0    0.0000
   2511 H         930.8040  235.3187    0.9663 H       418        0    0.0000
   2512 H         930.6499  235.4734   -0.7804 H       418        0    0.0000
   2513 H         930.4521  237.9765   -0.5443 H       418        0    0.0000
   2514 H         930.5967  237.8253    1.2034 H       418        0    0.0000
   2515 C         932.4552  237.4242    0.1286 C.3     419        0    0.0000
   2516 C         933.0573  238.5903    0.9202 C.3     419        0    0.0000
   2517 H         932.8740  236.4737    0.4818 H       419        0    0.0000
   2518 H         932.7225  237.5116   -0.9318 H       419        0    0.0000
   2519 H         932.6052  239.5366    0.5983 H       419        0    0.0000
   2520 H         932.8281  238.4785    1.9873 H       419        0    0.0000
   2521 C         934.6121  238.6876    0.7447 C.3     420        0    0.0000
   2522 C         935.0474  240.0361    0.1609 C.3     420        0    0.0000
   2523 H         935.0886  238.5284    1.7199 H       420        0    0.0000
   2524 H         934.9462  237.8703    0.0936 H       420        0    0.0000
   2525 H         934.6507  240.1518   -0.8554 H       420        0    0.0000
   2526 H         934.6297  240.8567    0.7574 H       420        0    0.0000
   2527 C         936.6070  240.1879    0.1149 C.3     421        0    0.0000
   2528 C         937.1389  240.2873   -1.3192 C.3     421        0    0.0000
   2529 H         936.8923  241.0809    0.6846 H       421        0    0.0000
   2530 H         937.0610  239.3298    0.6258 H       421        0    0.0000
   2531 H         936.4962  239.7147   -1.9992 H       421        0    0.0000
   2532 H         937.1088  241.3296   -1.6601 H       421        0    0.0000
   2533 C         938.6085  239.7563   -1.4459 C.3     422        0    0.0000
   2534 C         939.6467  240.8502   -1.1728 C.3     422        0    0.0000
   2535 H         938.7454  238.9241   -0.7445 H       422        0    0.0000
   2536 H         938.7504  239.3459   -2.4534 H       422        0    0.0000
   2537 H         939.8288  241.4321   -2.0849 H       422        0    0.0000
   2538 H         939.2644  241.5527   -0.4220 H       422        0    0.0000
   2539 C         941.0095  240.2628   -0.6677 C.3     423        0    0.0000
   2540 C         941.9370  241.3467   -0.1072 C.3     423        0    0.0000
   2541 H         940.8057  239.5076    0.1015 H       423        0    0.0000
   2542 H         941.4997  239.7413   -1.4991 H       423        0    0.0000
   2543 H         941.3551  242.2362    0.1643 H       423        0    0.0000
   2544 H         942.4175  240.9916    0.8129 H       423        0    0.0000
   2545 C         943.0496  241.7636   -1.1299 C.3     424        0    0.0000
   2546 C         943.9013  242.9304   -0.6180 C.3     424        0    0.0000
   2547 H         943.6865  240.8939   -1.3335 H       424        0    0.0000
   2548 H         942.5728  242.0343   -2.0801 H       424        0    0.0000
   2549 H         943.5302  243.8766   -1.0311 H       424        0    0.0000
   2550 H         943.8162  243.0081    0.4730 H       424        0    0.0000
   2551 C         945.4144  242.7726   -0.9968 C.3     425        0    0.0000
   2552 C         946.2933  243.8392   -0.3343 C.3     425        0    0.0000
   2553 H         945.7503  241.7711   -0.7006 H       425        0    0.0000
   2554 H         945.5134  242.8282   -2.0880 H       425        0    0.0000
   2555 H         945.9301  244.8410   -0.5951 H       425        0    0.0000
   2556 H         946.2285  243.7549    0.7576 H       425        0    0.0000
   2557 C         947.7967  243.7197   -0.7620 C.3     426        0    0.0000
   2558 C         948.6022  244.9754   -0.4107 C.3     426        0    0.0000
   2559 H         948.2353  242.8419   -0.2712 H       426        0    0.0000
   2560 H         947.8434  243.5328   -1.8421 H       426        0    0.0000
   2561 H         948.0112  245.8741   -0.6270 H       426        0    0.0000
   2562 H         948.8210  244.9935    0.6642 H       426        0    0.0000
   2563 C         949.9525  245.0560   -1.2028 C.3     427        0    0.0000
   2564 C         950.9152  246.0889   -0.6063 C.3     427        0    0.0000
   2565 H         950.4203  244.0637   -1.2060 H       427        0    0.0000
   2566 H         949.7346  245.3050   -2.2488 H       427        0    0.0000
   2567 H         950.4675  247.0895   -0.6500 H       427        0    0.0000
   2568 H         951.0928  245.8693    0.4538 H       427        0    0.0000
   2569 C         952.2927  246.1185   -1.3539 C.3     428        0    0.0000
   2570 C         953.1091  247.3714   -1.0181 C.3     428        0    0.0000
   2571 H         952.8593  245.2177   -1.0872 H       428        0    0.0000
   2572 H         952.1097  246.0671   -2.4344 H       428        0    0.0000
   2573 H         953.4565  247.8524   -1.9409 H       428        0    0.0000
   2574 H         952.4780  248.1037   -0.4995 H       428        0    0.0000
   2575 C         954.3513  247.0476   -0.1184 C.3     429        0    0.0000
   2576 C         955.0936  248.3134    0.3243 C.3     429        0    0.0000
   2577 H         954.0144  246.4827    0.7596 H       429        0    0.0000
   2578 H         955.0294  246.3893   -0.6755 H       429        0    0.0000
   2579 H         954.3862  249.1443    0.4366 H       429        0    0.0000
   2580 H         955.5530  248.1555    1.3079 H       429        0    0.0000
   2581 C         956.2098  248.7340   -0.6930 C.3     430        0    0.0000
   2582 C         957.2254  249.7007   -0.0741 C.3     430        0    0.0000
   2583 H         956.7198  247.8313   -1.0515 H       430        0    0.0000
   2584 H         955.7353  249.1961   -1.5675 H       430        0    0.0000
   2585 H         956.8323  250.7247   -0.0969 H       430        0    0.0000
   2586 H         957.3890  249.4495    0.9813 H       430        0    0.0000
   2587 C         958.6039  249.6719   -0.8200 C.3     431        0    0.0000
   2588 C         959.5070  250.8428   -0.4169 C.3     431        0    0.0000
   2589 H         959.1035  248.7196   -0.6030 H       431        0    0.0000
   2590 H         958.4213  249.6927   -1.9014 H       431        0    0.0000
   2591 H         959.2748  251.7244   -1.0273 H       431        0    0.0000
   2592 H         959.3165  251.1231    0.6265 H       431        0    0.0000
   2593 C         961.0287  250.5027   -0.5789 C.3     432        0    0.0000
   2594 C         961.9315  251.5477    0.0860 C.3     432        0    0.0000
   2595 H         961.2177  249.5124   -0.1463 H       432        0    0.0000
   2596 H         961.2627  250.4292   -1.6482 H       432        0    0.0000
   2597 H         961.3314  252.2191    0.7125 H       432        0    0.0000
   2598 H         962.6506  251.0546    0.7516 H       432        0    0.0000
   2599 C         962.7197  252.4054   -0.9631 C.3     433        0    0.0000
   2600 C         963.5739  253.4921   -0.3007 C.3     433        0    0.0000
   2601 H         963.3552  251.7387   -1.5591 H       433        0    0.0000
   2602 H         962.0031  252.8613   -1.6573 H       433        0    0.0000
   2603 H         963.0370  254.4487   -0.3077 H       433        0    0.0000
   2604 H         963.7542  253.2395    0.7515 H       433        0    0.0000
   2605 C         964.9546  253.6822   -1.0185 C.3     434        0    0.0000
   2606 C         965.9053  254.5812   -0.2203 C.3     434        0    0.0000
   2607 H         965.4108  252.6968   -1.1742 H       434        0    0.0000
   2608 H         964.7798  254.1094   -2.0137 H       434        0    0.0000
   2609 H         965.3873  255.4987    0.0856 H       434        0    0.0000
   2610 H         966.2180  254.0740    0.7009 H       434        0    0.0000
   2611 C         967.1827  254.9717   -1.0407 C.3     435        0    0.0000
   2612 C         968.1024  255.9222   -0.2663 C.3     435        0    0.0000
   2613 H         967.7257  254.0563   -1.3065 H       435        0    0.0000
   2614 H         966.8689  255.4369   -1.9834 H       435        0    0.0000
   2615 H         967.5040  256.6501    0.2955 H       435        0    0.0000
   2616 H         968.6888  255.3604    0.4714 H       435        0    0.0000
   2617 C         969.0860  256.6971   -1.2094 C.3     436        0    0.0000
   2618 C         970.3583  257.1440   -0.4808 C.3     436        0    0.0000
   2619 H         969.3453  256.0511   -2.0574 H       436        0    0.0000
   2620 H         968.5648  257.5683   -1.6250 H       436        0    0.0000
   2621 H         970.1038  257.5481    0.5068 H       436        0    0.0000
   2622 H         971.0156  256.2827   -0.3091 H       436        0    0.0000
   2623 C         971.1511  258.2326   -1.2833 C.3     437        0    0.0000
   2624 C         972.4592  258.6280   -0.5893 C.3     437        0    0.0000
   2625 H         971.3603  257.8478   -2.2892 H       437        0    0.0000
   2626 H         970.5110  259.1144   -1.4101 H       437        0    0.0000
   2627 H         972.3115  259.5420   -0.0009 H       437        0    0.0000
   2628 H         972.7623  257.8446    0.1163 H       437        0    0.0000
   2629 C         973.6246  258.8670   -1.6102 C.3     438        0    0.0000
   2630 C         974.9337  259.2588   -0.9160 C.3     438        0    0.0000
   2631 H         973.7704  257.9539   -2.2005 H       438        0    0.0000
   2632 H         973.3224  259.6523   -2.3142 H       438        0    0.0000
   2633 H         974.7258  259.9250   -0.0695 H       438        0    0.0000
   2634 H         975.4218  258.3674   -0.5030 H       438        0    0.0000
   2635 C         975.9312  259.9756   -1.8900 C.3     439        0    0.0000
   2636 C         977.1105  260.6137   -1.1475 C.3     439        0    0.0000
   2637 H         976.2982  259.2448   -2.6212 H       439        0    0.0000
   2638 H         975.3848  260.7404   -2.4559 H       439        0    0.0000
   2639 H         977.3234  261.6067   -1.5625 H       439        0    0.0000
   2640 H         976.8540  260.7621   -0.0912 H       439        0    0.0000
   2641 C         978.4096  259.7406   -1.2343 C.3     440        0    0.0000
   2642 C         979.6407  260.4758   -0.6931 C.3     440        0    0.0000
   2643 H         978.2495  258.8116   -0.6732 H       440        0    0.0000
   2644 H         978.5729  259.4527   -2.2802 H       440        0    0.0000
   2645 H         980.5216  260.2312   -1.2995 H       440        0    0.0000
   2646 H         979.4957  261.5604   -0.7713 H       440        0    0.0000
   2647 C         979.9399  260.1126    0.8022 C.3     441        0    0.0000
   2648 C         980.6168  261.2633    1.5552 C.3     441        0    0.0000
   2649 H         978.9982  259.8426    1.2958 H       441        0    0.0000
   2650 H         980.5768  259.2197    0.8286 H       441        0    0.0000
   2651 H         980.2215  262.2253    1.2061 H       441        0    0.0000
   2652 H         980.3875  261.1984    2.6261 H       441        0    0.0000
   2653 C         982.1735  261.2598    1.3707 C.3     442        0    0.0000
   2654 C         982.6946  262.5862    0.8064 C.3     442        0    0.0000
   2655 H         982.6441  261.0526    2.3397 H       442        0    0.0000
   2656 H         982.4486  260.4333    0.7036 H       442        0    0.0000
   2657 H         982.5729  262.6048   -0.2837 H       442        0    0.0000
   2658 H         982.1046  263.4215    1.2036 H       442        0    0.0000
   2659 C         984.2051  262.8257    1.1504 C.3     443        0    0.0000
   2660 C         984.9467  263.5615    0.0289 C.3     443        0    0.0000
   2661 H         984.2686  263.3997    2.0831 H       443        0    0.0000
   2662 H         984.6816  261.8567    1.3438 H       443        0    0.0000
   2663 H         984.7424  263.0804   -0.9357 H       443        0    0.0000
   2664 H         984.5813  264.5930   -0.0499 H       443        0    0.0000
   2665 C         986.4967  263.5907    0.2610 C.3     444        0    0.0000
   2666 C         987.0900  264.9875    0.0462 C.3     444        0    0.0000
   2667 H         986.7081  263.2449    1.2804 H       444        0    0.0000
   2668 H         986.9698  262.8723   -0.4198 H       444        0    0.0000
   2669 H         987.1813  265.1964   -1.0269 H       444        0    0.0000
   2670 H         986.4174  265.7494    0.4594 H       444        0    0.0000
   2671 C         988.5001  265.1429    0.7131 C.3     445        0    0.0000
   2672 C         989.5831  265.5275   -0.3010 C.3     445        0    0.0000
   2673 H         988.4365  265.9029    1.5017 H       445        0    0.0000
   2674 H         988.7643  264.1990    1.2058 H       445        0    0.0000
   2675 H         989.3167  265.1512   -1.2966 H       445        0    0.0000
   2676 H         989.6498  266.6193   -0.3843 H       445        0    0.0000
   2677 C         990.9921  264.9637    0.0919 C.3     446        0    0.0000
   2678 C         992.1011  266.0096   -0.0671 C.3     446        0    0.0000
   2679 H         990.9546  264.6100    1.1296 H       446        0    0.0000
   2680 H         991.2089  264.0877   -0.5319 H       446        0    0.0000
   2681 H         992.6043  265.8803   -1.0334 H       446        0    0.0000
   2682 H         991.6696  267.0182   -0.0691 H       446        0    0.0000
   2683 C         993.1706  265.9198    1.0755 C.3     447        0    0.0000
   2684 C         994.3802  266.8231    0.8111 C.3     447        0    0.0000
   2685 H         992.6965  266.1945    2.0259 H       447        0    0.0000
   2686 H         993.4948  264.8765    1.1751 H       447        0    0.0000
   2687 H         995.0219  266.8623    1.7002 H       447        0    0.0000
   2688 H         994.9905  266.4068    0.0002 H       447        0    0.0000
   2689 C         993.9586  268.2835    0.4276 C.3     448        0    0.0000
   2690 C         995.1681  269.1849    0.1559 C.3     448        0    0.0000
   2691 H         993.3124  268.2439   -0.4581 H       448        0    0.0000
   2692 H         993.3529  268.7018    1.2410 H       448        0    0.0000
   2693 H         994.8365  270.1432   -0.2627 H       448        0    0.0000
   2694 H         995.6854  269.4137    1.0959 H       448        0    0.0000
   2695 C         996.1888  268.5267   -0.8353 C.3     449        0    0.0000
   2696 C         997.5283  269.2709   -0.8688 C.3     449        0    0.0000
   2697 H         996.3461  267.4822   -0.5389 H       449        0    0.0000
   2698 H         995.7447  268.5061   -1.8382 H       449        0    0.0000
   2699 H         997.8001  269.5096   -1.9045 H       449        0    0.0000
   2700 H         997.4409  270.2268   -0.3377 H       449        0    0.0000
   2701 C         998.6874  268.4373   -0.2214 C.3     450        0    0.0000
   2702 C         999.9793  269.2500   -0.0815 C.3     450        0    0.0000
   2703 H         998.3592  268.0802    0.7626 H       450        0    0.0000
   2704 H         998.8680  267.5465   -0.8357 H       450        0    0.0000
   2705 H        1000.1639  269.8238   -0.9982 H       450        0    0.0000
   2706 H         999.8787  269.9794    0.7318 H       450        0    0.0000
   2707 C        1001.2244  268.3419    0.2055 C.3     451        0    0.0000
   2708 C        1002.4805  269.1613    0.5216 C.3     451        0    0.0000
   2709 H        1000.9896  267.6747    1.0441 H       451        0    0.0000
   2710 H        1001.4031  267.7009   -0.6666 H       451        0    0.0000
   2711 H        1002.4134  269.5768    1.5348 H       451        0    0.0000
   2712 H        1003.3660  268.5140    0.5047 H       451        0    0.0000
   2713 C        1002.6942  270.3366   -0.4934 C.3     452        0    0.0000
   2714 C        1003.4953  271.4923    0.1163 C.3     452        0    0.0000
   2715 H        1003.2098  269.9483   -1.3806 H       452        0    0.0000
   2716 H        1001.7137  270.6953   -0.8306 H       452        0    0.0000
   2717 H        1003.0657  272.4528   -0.1944 H       452        0    0.0000
   2718 H        1003.4314  271.4579    1.2110 H       452        0    0.0000
   2719 C        1005.0054  271.4548   -0.3031 C.3     453        0    0.0000
   2720 C        1005.6826  272.8221   -0.1579 C.3     453        0    0.0000
   2721 H        1005.5250  270.7104    0.3129 H       453        0    0.0000
   2722 H        1005.0754  271.1086   -1.3417 H       453        0    0.0000
   2723 H        1005.0526  273.6029   -0.6016 H       453        0    0.0000
   2724 H        1005.7967  273.0746    0.9035 H       453        0    0.0000
   2725 C        1007.0930  272.8620   -0.8413 C.3     454        0    0.0000
   2726 C        1008.1723  273.4299    0.0870 C.3     454        0    0.0000
   2727 H        1007.3629  271.8459   -1.1546 H       454        0    0.0000
   2728 H        1007.0263  273.4662   -1.7546 H       454        0    0.0000
   2729 H        1008.2417  274.5176   -0.0381 H       454        0    0.0000
   2730 H        1007.9003  273.2500    1.1344 H       454        0    0.0000
   2731 C        1009.5814  272.7991   -0.1848 C.3     455        0    0.0000
   2732 C        1010.7118  273.8266   -0.0595 C.3     455        0    0.0000
   2733 H        1009.7421  271.9751    0.5215 H       455        0    0.0000
   2734 H        1009.5837  272.3579   -1.1892 H       455        0    0.0000
   2735 H        1010.4261  274.7623   -0.5559 H       455        0    0.0000
   2736 H        1010.8838  274.0697    0.9963 H       455        0    0.0000
   2737 C        1012.0541  273.3122   -0.6847 C.3     456        0    0.0000
   2738 C        1013.1968  274.3198   -0.5166 C.3     456        0    0.0000
   2739 H        1012.3212  272.3584   -0.2131 H       456        0    0.0000
   2740 H        1011.8910  273.1026   -1.7491 H       456        0    0.0000
   2741 H        1013.9990  273.8810    0.0897 H       456        0    0.0000
   2742 H        1013.6349  274.5582   -1.4937 H       456        0    0.0000
   2743 C        1012.7207  275.6503    0.1619 C.3     457        0    0.0000
   2744 C        1013.8457  276.6865    0.2614 C.3     457        0    0.0000
   2745 H        1011.8816  276.0602   -0.4138 H       457        0    0.0000
   2746 H        1012.3333  275.4185    1.1617 H       457        0    0.0000
   2747 H        1014.0228  277.1448   -0.7195 H       457        0    0.0000
   2748 H        1013.5515  277.4972    0.9395 H       457        0    0.0000
   2749 C        1015.1872  276.0594    0.7757 C.3     458        0    0.0000
   2750 C        1016.3981  276.9484    0.4716 C.3     458        0    0.0000
   2751 H        1015.1069  275.8901    1.8566 H       458        0    0.0000
   2752 H        1015.3178  275.0740    0.3113 H       458        0    0.0000
   2753 H        1016.5276  277.0493   -0.6131 H       458        0    0.0000
   2754 H        1016.2310  277.9590    0.8644 H       458        0    0.0000
   2755 C        1017.7225  276.3795    1.0877 C.3     459        0    0.0000
   2756 C        1018.8569  277.4102    1.0790 C.3     459        0    0.0000
   2757 H        1017.5217  276.0498    2.1146 H       459        0    0.0000
   2758 H        1018.0206  275.4874    0.5231 H       459        0    0.0000
   2759 H        1018.4443  278.4227    0.9882 H       459        0    0.0000
   2760 H        1019.4030  277.3766    2.0299 H       459        0    0.0000
   2761 C        1019.8690  277.1699   -0.0937 C.3     460        0    0.0000
   2762 C        1020.9138  278.2865   -0.1972 C.3     460        0    0.0000
   2763 H        1020.3651  276.2036    0.0598 H       460        0    0.0000
   2764 H        1019.3088  277.0907   -1.0336 H       460        0    0.0000
   2765 H        1020.4171  279.2546   -0.3377 H       460        0    0.0000
   2766 H        1021.4828  278.3571    0.7381 H       460        0    0.0000
   2767 C        1021.9148  278.0556   -1.3814 C.3     461        0    0.0000
   2768 C        1022.9480  279.1818   -1.4967 C.3     461        0    0.0000
   2769 H        1022.4216  277.0940   -1.2337 H       461        0    0.0000
   2770 H        1021.3447  277.9712   -2.3149 H       461        0    0.0000
   2771 H        1023.3326  279.2359   -2.5227 H       461        0    0.0000
   2772 H        1022.4751  280.1491   -1.2862 H       461        0    0.0000
   2773 C        1024.1539  278.9846   -0.5147 C.3     462        0    0.0000
   2774 C        1024.7743  280.3174   -0.0815 C.3     462        0    0.0000
   2775 H        1023.8066  278.4279    0.3645 H       462        0    0.0000
   2776 H        1024.9104  278.3593   -1.0049 H       462        0    0.0000
   2777 H        1025.1018  280.8838   -0.9620 H       462        0    0.0000
   2778 H        1024.0231  280.9339    0.4280 H       462        0    0.0000
   2779 C        1025.9994  280.1192    0.8764 C.3     463        0    0.0000
   2780 C        1026.8193  281.4032    1.0440 C.3     463        0    0.0000
   2781 H        1025.6335  279.7764    1.8521 H       463        0    0.0000
   2782 H        1026.6334  279.3174    0.4781 H       463        0    0.0000
   2783 H        1026.2632  282.2598    0.6433 H       463        0    0.0000
   2784 H        1026.9865  281.6065    2.1090 H       463        0    0.0000
   2785 C        1028.2081  281.3197    0.3217 C.3     464        0    0.0000
   2786 C        1029.0522  282.5806    0.5382 C.3     464        0    0.0000
   2787 H        1028.7467  280.4385    0.6916 H       464        0    0.0000
   2788 H        1028.0400  281.1592   -0.7504 H       464        0    0.0000
   2789 H        1028.5583  283.4469    0.0808 H       464        0    0.0000
   2790 H        1029.1375  282.7966    1.6105 H       464        0    0.0000
   2791 C        1030.4923  282.4426   -0.0655 C.3     465        0    0.0000
   2792 C        1031.3197  283.7211    0.1077 C.3     465        0    0.0000
   2793 H        1030.9990  281.5982    0.4180 H       465        0    0.0000
   2794 H        1030.4069  282.1912   -1.1299 H       465        0    0.0000
   2795 H        1030.6899  284.6028   -0.0643 H       465        0    0.0000
   2796 H        1031.6885  283.7937    1.1384 H       465        0    0.0000
   2797 C        1032.5426  283.7746   -0.8714 C.3     466        0    0.0000
   2798 C        1033.7750  284.4187   -0.2269 C.3     466        0    0.0000
   2799 H        1032.7789  282.7542   -1.1980 H       466        0    0.0000
   2800 H        1032.2523  284.3336   -1.7695 H       466        0    0.0000
   2801 H        1033.8387  284.1337    0.8306 H       466        0    0.0000
   2802 H        1034.6885  284.0481   -0.7086 H       466        0    0.0000
   2803 C        1033.7494  285.9829   -0.3282 C.3     467        0    0.0000
   2804 C        1034.9325  286.6315    0.3989 C.3     467        0    0.0000
   2805 H        1033.7563  286.2689   -1.3873 H       467        0    0.0000
   2806 H        1032.8038  286.3489    0.0909 H       467        0    0.0000
   2807 H        1034.7842  287.7166    0.4651 H       467        0    0.0000
   2808 H        1034.9915  286.2583    1.4289 H       467        0    0.0000
   2809 C        1036.2974  286.3510   -0.3192 C.3     468        0    0.0000
   2810 C        1037.4962  286.8429    0.4993 C.3     468        0    0.0000
   2811 H        1036.3849  285.2731   -0.5039 H       468        0    0.0000
   2812 H        1036.2870  286.8392   -1.3015 H       468        0    0.0000
   2813 H        1037.2996  287.8504    0.8864 H       468        0    0.0000
   2814 H        1037.6478  286.1945    1.3712 H       468        0    0.0000
   2815 C        1038.8180  286.8745   -0.3429 C.3     469        0    0.0000
   2816 C        1039.8842  287.7805    0.2829 C.3     469        0    0.0000
   2817 H        1039.2020  285.8512   -0.4367 H       469        0    0.0000
   2818 H        1038.5823  287.2169   -1.3581 H       469        0    0.0000
   2819 H        1040.3409  288.4124   -0.4888 H       469        0    0.0000
   2820 H        1039.4216  288.4579    1.0114 H       469        0    0.0000
   2821 C        1041.0131  286.9622    0.9996 C.3     470        0    0.0000
   2822 C        1042.3110  287.7648    1.1416 C.3     470        0    0.0000
   2823 H        1040.6520  286.6527    1.9881 H       470        0    0.0000
   2824 H        1041.1993  286.0432    0.4301 H       470        0    0.0000
   2825 H        1042.1346  288.6608    1.7496 H       470        0    0.0000
   2826 H        1043.0658  287.1691    1.6699 H       470        0    0.0000
   2827 C        1042.8937  288.2024   -0.2463 C.3     471        0    0.0000
   2828 C        1044.2205  288.9571   -0.1075 C.3     471        0    0.0000
   2829 H        1043.0321  287.3097   -0.8690 H       471        0    0.0000
   2830 H        1042.1547  288.8316   -0.7575 H       471        0    0.0000
   2831 H        1045.0289  288.2554    0.1321 H       471        0    0.0000
   2832 H        1044.4858  289.4298   -1.0613 H       471        0    0.0000
   2833 C        1044.1630  290.0606    1.0044 C.3     472        0    0.0000
   2834 C        1045.4308  290.9214    1.0347 C.3     472        0    0.0000
   2835 H        1043.2833  290.6926    0.8304 H       472        0    0.0000
   2836 H        1044.0146  289.5752    1.9770 H       472        0    0.0000
   2837 H        1045.9893  290.8014    0.0981 H       472        0    0.0000
   2838 H        1045.1631  291.9827    1.1084 H       472        0    0.0000
   2839 C        1046.3705  290.5530    2.2342 C.3     473        0    0.0000
   2840 C        1047.7947  291.0856    2.0411 C.3     473        0    0.0000
   2841 H        1045.9396  290.9577    3.1581 H       473        0    0.0000
   2842 H        1046.3889  289.4618    2.3467 H       473        0    0.0000
   2843 H        1048.3037  291.1580    3.0103 H       473        0    0.0000
   2844 H        1048.3782  290.3861    1.4301 H       473        0    0.0000
   2845 C        1047.8138  292.4945    1.3540 C.3     474        0    0.0000
   2846 C        1049.2168  292.8913    0.8815 C.3     474        0    0.0000
   2847 H        1047.1200  292.4829    0.5043 H       474        0    0.0000
   2848 H        1047.4312  293.2390    2.0629 H       474        0    0.0000
   2849 H        1049.8467  291.9986    0.7819 H       474        0    0.0000
   2850 H        1049.1627  293.3513   -0.1130 H       474        0    0.0000
   2851 C        1049.9135  293.8941    1.8647 C.3     475        0    0.0000
   2852 C        1051.4229  293.9953    1.6181 C.3     475        0    0.0000
   2853 H        1049.4470  294.8807    1.7527 H       475        0    0.0000
   2854 H        1049.7216  293.5700    2.8950 H       475        0    0.0000
   2855 H        1051.6925  293.4486    0.7060 H       475        0    0.0000
   2856 H        1051.7078  295.0419    1.4539 H       475        0    0.0000
   2857 C        1052.2598  293.4255    2.8149 C.3     476        0    0.0000
   2858 C        1053.7651  293.6455    2.6277 C.3     476        0    0.0000
   2859 H        1051.9221  293.9046    3.7422 H       476        0    0.0000
   2860 H        1052.0461  292.3544    2.9176 H       476        0    0.0000
   2861 H        1054.3080  293.3111    3.5205 H       476        0    0.0000
   2862 H        1054.1326  293.0397    1.7902 H       476        0    0.0000
   2863 C        1054.1166  295.1489    2.3564 C.3     477        0    0.0000
   2864 C        1055.4604  295.3106    1.6372 C.3     477        0    0.0000
   2865 H        1053.3136  295.5973    1.7584 H       477        0    0.0000
   2866 H        1054.1348  295.6860    3.3127 H       477        0    0.0000
   2867 H        1055.7358  294.3727    1.1392 H       477        0    0.0000
   2868 H        1055.3774  296.0719    0.8517 H       477        0    0.0000
   2869 C        1056.6134  295.7196    2.6174 C.3     478        0    0.0000
   2870 C        1057.9318  295.9889    1.8835 C.3     478        0    0.0000
   2871 H        1056.3037  296.6124    3.1745 H       478        0    0.0000
   2872 H        1056.7504  294.9196    3.3555 H       478        0    0.0000
   2873 H        1058.4354  295.0412    1.6552 H       478        0    0.0000
   2874 H        1057.7338  296.4799    0.9226 H       478        0    0.0000
   2875 C        1058.9044  296.8893    2.7203 C.3     479        0    0.0000
   2876 C        1060.0782  297.4102    1.8837 C.3     479        0    0.0000
   2877 H        1058.3369  297.7306    3.1369 H       479        0    0.0000
   2878 H        1059.2784  296.3088    3.5727 H       479        0    0.0000
   2879 H        1060.2131  296.7832    0.9937 H       479        0    0.0000
   2880 H        1059.8634  298.4245    1.5248 H       479        0    0.0000
   2881 C        1061.4204  297.4343    2.6931 C.3     480        0    0.0000
   2882 C        1062.5510  298.1253    1.9229 C.3     480        0    0.0000
   2883 H        1061.2482  297.9461    3.6481 H       480        0    0.0000
   2884 H        1061.7057  296.4030    2.9353 H       480        0    0.0000
   2885 H        1062.9058  297.4761    1.1128 H       480        0    0.0000
   2886 H        1062.1786  299.0429    1.4510 H       480        0    0.0000
   2887 C        1063.7639  298.4888    2.8471 C.3     481        0    0.0000
   2888 C        1064.8893  299.1911    2.0793 C.3     481        0    0.0000
   2889 H        1063.4075  299.1303    3.6624 H       481        0    0.0000
   2890 H        1064.1422  297.5698    3.3117 H       481        0    0.0000
   2891 H        1065.4988  298.4516    1.5455 H       481        0    0.0000
   2892 H        1064.4659  299.8587    1.3186 H       481        0    0.0000
   2893 C        1065.8208  300.0270    3.0233 C.3     482        0    0.0000
   2894 C        1067.0963  300.4955    2.3143 C.3     482        0    0.0000
   2895 H        1065.2596  300.8917    3.3985 H       482        0    0.0000
   2896 H        1066.0789  299.4156    3.8971 H       482        0    0.0000
   2897 H        1067.7916  299.6552    2.1969 H       482        0    0.0000
   2898 H        1066.8567  300.8497    1.3040 H       482        0    0.0000
   2899 C        1067.8210  301.6461    3.0945 C.3     483        0    0.0000
   2900 C        1069.1293  302.0718    2.4187 C.3     483        0    0.0000
   2901 H        1067.1412  302.5036    3.1718 H       483        0    0.0000
   2902 H        1068.0197  301.3080    4.1191 H       483        0    0.0000
   2903 H        1069.1266  301.7633    1.3659 H       483        0    0.0000
   2904 H        1069.2180  303.1652    2.4264 H       483        0    0.0000
   2905 C        1070.3884  301.4576    3.1220 C.3     484        0    0.0000
   2906 C        1071.6924  301.8301    2.4077 C.3     484        0    0.0000
   2907 H        1070.4170  301.8048    4.1622 H       484        0    0.0000
   2908 H        1070.2771  300.3668    3.1568 H       484        0    0.0000
   2909 H        1071.8066  301.2300    1.4965 H       484        0    0.0000
   2910 H        1071.6611  302.8802    2.0915 H       484        0    0.0000
   2911 C        1072.9507  301.6132    3.3169 C.3     485        0    0.0000
   2912 C        1074.0355  302.6671    3.0686 C.3     485        0    0.0000
   2913 H        1072.6362  301.6375    4.3676 H       485        0    0.0000
   2914 H        1073.3522  300.6092    3.1314 H       485        0    0.0000
   2915 H        1073.5787  303.6033    2.7249 H       485        0    0.0000
   2916 H        1074.5581  302.8968    4.0055 H       485        0    0.0000
   2917 C        1075.0874  302.1977    2.0050 C.3     486        0    0.0000
   2918 C        1076.1040  303.2948    1.6702 C.3     486        0    0.0000
   2919 H        1075.6050  301.3094    2.3878 H       486        0    0.0000
   2920 H        1074.5570  301.8865    1.0967 H       486        0    0.0000
   2921 H        1076.6088  303.0637    0.7240 H       486        0    0.0000
   2922 H        1075.5897  304.2533    1.5270 H       486        0    0.0000
   2923 C        1077.1858  303.4646    2.7919 C.3     487        0    0.0000
   2924 C        1078.3037  304.4287    2.3796 C.3     487        0    0.0000
   2925 H        1076.6953  303.8257    3.7044 H       487        0    0.0000
   2926 H        1077.6069  302.4798    3.0290 H       487        0    0.0000
   2927 H        1078.4105  304.4358    1.2877 H       487        0    0.0000
   2928 H        1078.0461  305.4527    2.6775 H       487        0    0.0000
   2929 C        1079.6830  304.0479    3.0199 C.3     488        0    0.0000
   2930 C        1080.7725  305.0800    2.7087 C.3     488        0    0.0000
   2931 H        1079.5544  303.9520    4.1052 H       488        0    0.0000
   2932 H        1079.9838  303.0601    2.6497 H       488        0    0.0000
   2933 H        1081.6958  304.8251    3.2435 H       488        0    0.0000
   2934 H        1081.0131  305.0621    1.6384 H       488        0    0.0000
   2935 C        1080.3436  306.5346    3.1059 C.3     489        0    0.0000
   2936 C        1081.4851  307.5432    2.9369 C.3     489        0    0.0000
   2937 H        1079.4855  306.8308    2.4899 H       489        0    0.0000
   2938 H        1079.9973  306.5293    4.1469 H       489        0    0.0000
   2939 H        1081.0826  308.5629    2.8925 H       489        0    0.0000
   2940 H        1082.1523  307.5055    3.8068 H       489        0    0.0000
   2941 C        1082.3275  307.2757    1.6422 C.3     490        0    0.0000
   2942 C        1083.6913  307.9740    1.6819 C.3     490        0    0.0000
   2943 H        1082.4624  306.1931    1.5256 H       490        0    0.0000
   2944 H        1081.7550  307.6176    0.7710 H       490        0    0.0000
   2945 H        1083.9111  308.4254    0.7065 H       490        0    0.0000
   2946 H        1083.6733  308.7932    2.4113 H       490        0    0.0000
   2947 C        1084.8523  306.9893    2.0563 C.3     491        0    0.0000
   2948 C        1086.1077  307.7269    2.5347 C.3     491        0    0.0000
   2949 H        1084.4976  306.3051    2.8371 H       491        0    0.0000
   2950 H        1085.0890  306.3725    1.1806 H       491        0    0.0000
   2951 H        1085.9231  308.1883    3.5128 H       491        0    0.0000
   2952 H        1086.9321  307.0163    2.6723 H       491        0    0.0000
   2953 C        1086.5625  308.8399    1.5287 C.3     492        0    0.0000
   2954 C        1087.9495  309.3974    1.8676 C.3     492        0    0.0000
   2955 H        1086.5627  308.4213    0.5146 H       492        0    0.0000
   2956 H        1085.8202  309.6477    1.5358 H       492        0    0.0000
   2957 H        1088.5969  308.5942    2.2405 H       492        0    0.0000
   2958 H        1088.4272  309.7928    0.9627 H       492        0    0.0000
   2959 C        1087.8855  310.5356    2.9437 C.3     493        0    0.0000
   2960 C        1089.2631  311.1446    3.2276 C.3     493        0    0.0000
   2961 H        1087.1948  311.3134    2.5952 H       493        0    0.0000
   2962 H        1087.4579  310.1254    3.8671 H       493        0    0.0000
   2963 H        1089.9585  310.8963    2.4165 H       493        0    0.0000
   2964 H        1089.1917  312.2389    3.2576 H       493        0    0.0000
   2965 C        1089.8674  310.6405    4.5834 C.3     494        0    0.0000
   2966 C        1091.3676  310.9344    4.6956 C.3     494        0    0.0000
   2967 H        1089.3278  311.1182    5.4105 H       494        0    0.0000
   2968 H        1089.6879  309.5618    4.6713 H       494        0    0.0000
   2969 H        1091.6106  311.8601    4.1591 H       494        0    0.0000
   2970 H        1091.6414  311.0976    5.7454 H       494        0    0.0000
   2971 C        1092.2457  309.7709    4.1192 C.3     495        0    0.0000
   2972 C        1093.5660  310.2776    3.5284 C.3     495        0    0.0000
   2973 H        1092.4449  309.0481    4.9201 H       495        0    0.0000
   2974 H        1091.6694  309.2398    3.3515 H       495        0    0.0000
   2975 H        1094.2476  309.4359    3.3534 H       495        0    0.0000
   2976 H        1093.3864  310.7457    2.5526 H       495        0    0.0000
   2977 C        1094.2758  311.3160    4.4639 C.3     496        0    0.0000
   2978 C        1095.4545  312.0103    3.7726 C.3     496        0    0.0000
   2979 H        1093.5386  312.0608    4.7890 H       496        0    0.0000
   2980 H        1094.6212  310.7993    5.3680 H       496        0    0.0000
   2981 H        1096.1199  312.4568    4.5219 H       496        0    0.0000
   2982 H        1096.0516  311.2753    3.2190 H       496        0    0.0000
   2983 C        1094.9857  313.1305    2.7813 C.3     497        0    0.0000
   2984 C        1096.1652  313.8821    2.1544 C.3     497        0    0.0000
   2985 H        1094.3710  312.6733    1.9961 H       497        0    0.0000
   2986 H        1094.3370  313.8315    3.3211 H       497        0    0.0000
   2987 H        1096.7102  313.2217    1.4687 H       497        0    0.0000
   2988 H        1095.7983  314.7248    1.5553 H       497        0    0.0000
   2989 C        1097.1642  314.4260    3.2331 C.3     498        0    0.0000
   2990 C        1098.5322  314.7727    2.6356 C.3     498        0    0.0000
   2991 H        1096.7249  315.3127    3.7068 H       498        0    0.0000
   2992 H        1097.2783  313.6716    4.0215 H       498        0    0.0000
   2993 H        1099.0117  313.8674    2.2430 H       498        0    0.0000
   2994 H        1098.4094  315.4572    1.7869 H       498        0    0.0000
   2995 C        1099.4885  315.4362    3.6858 C.3     499        0    0.0000
   2996 C        1100.9664  315.2456    3.3273 C.3     499        0    0.0000
   2997 H        1099.2527  316.5052    3.7528 H       499        0    0.0000
   2998 H        1099.2825  315.0051    4.6733 H       499        0    0.0000
   2999 H        1101.3795  314.3902    3.8761 H       499        0    0.0000
   3000 H        1101.0677  315.0135    2.2598 H       499        0    0.0000
   3001 C        1101.8252  316.5163    3.6517 C.3     500        0    0.0000
   3002 C        1103.2969  316.3376    3.2630 C.3     500        0    0.0000
   3003 H        1101.3978  317.3766    3.1217 H       500        0    0.0000
   3004 H        1101.7430  316.7343    4.7238 H       500        0    0.0000
   3005 H        1103.8065  315.7052    4.0004 H       500        0    0.0000
   3006 H        1103.3711  315.8196    2.2987 H       500        0    0.0000
   3007 C        1104.0549  317.7060    3.1609 C.3     501        0    0.0000
   3008 C        1105.5648  317.5210    2.9732 C.3     501        0    0.0000
   3009 H        1103.6392  318.2789    2.3229 H       501        0    0.0000
   3010 H        1103.8574  318.2883    4.0695 H       501        0    0.0000
   3011 H        1105.8649  316.5189    3.3039 H       501        0    0.0000
   3012 H        1105.8231  317.5922    1.9093 H       501        0    0.0000
   3013 C        1106.3972  318.5856    3.7675 C.3     502        0    0.0000
   3014 C        1107.9075  318.3838    3.6018 C.3     502        0    0.0000
   3015 H        1106.1113  319.5871    3.4226 H       502        0    0.0000
   3016 H        1106.1243  318.5280    4.8285 H       502        0    0.0000
   3017 H        1108.2513  317.5685    4.2504 H       502        0    0.0000
   3018 H        1108.1360  318.0844    2.5715 H       502        0    0.0000
   3019 C        1108.7211  319.6792    3.9439 C.3     503        0    0.0000
   3020 C        1110.1902  319.5714    3.5207 C.3     503        0    0.0000
   3021 H        1108.2483  320.5353    3.4468 H       503        0    0.0000
   3022 H        1108.6531  319.8648    5.0231 H       503        0    0.0000
   3023 H        1110.5994  318.6003    3.8261 H       503        0    0.0000
   3024 H        1110.2710  319.6174    2.4275 H       503        0    0.0000
   3025 C        1111.0724  320.7090    4.1409 C.3     504        0    0.0000
   3026 C        1112.5375  320.6132    3.7011 C.3     504        0    0.0000
   3027 H        1110.6543  321.6801    3.8480 H       504        0    0.0000
   3028 H        1111.0034  320.6534    5.2345 H       504        0    0.0000
   3029 H        1113.0221  319.7596    4.1909 H       504        0    0.0000
   3030 H        1112.5946  320.4307    2.6208 H       504        0    0.0000
   3031 C        1113.3451  321.9141    4.0372 C.3     505        0    0.0000
   3032 C        1114.8536  321.7288    3.8390 C.3     505        0    0.0000
   3033 H        1112.9797  322.7309    3.4027 H       505        0    0.0000
   3034 H        1113.1348  322.2026    5.0746 H       505        0    0.0000
   3035 H        1115.2444  321.0129    4.5727 H       505        0    0.0000
   3036 H        1115.0532  321.3040    2.8473 H       505        0    0.0000
   3037 C        1115.6412  323.0769    3.9791 C.3     506        0    0.0000
   3038 C        1117.1533  322.8857    3.8170 C.3     506        0    0.0000
   3039 H        1115.2687  323.7837    3.2274 H       506        0    0.0000
   3040 H        1115.4204  323.5151    4.9603 H       506        0    0.0000
   3041 H        1117.5764  322.4447    4.7281 H       506        0    0.0000
   3042 H        1117.3582  322.1809    3.0015 H       506        0    0.0000
   3043 C        1117.8940  324.2344    3.5173 C.3     507        0    0.0000
   3044 C        1119.4135  324.1102    3.6756 C.3     507        0    0.0000
   3045 H        1117.6470  324.5545    2.4975 H       507        0    0.0000
   3046 H        1117.5076  325.0077    4.1927 H       507        0    0.0000
   3047 H        1119.7137  323.0571    3.6095 H       507        0    0.0000
   3048 H        1119.9209  324.6345    2.8563 H       507        0    0.0000
   3049 C        1119.9186  324.6950    5.0394 C.3     508        0    0.0000
   3050 C        1121.4458  324.8138    5.0905 C.3     508        0    0.0000
   3051 H        1119.4592  325.6793    5.1939 H       508        0    0.0000
   3052 H        1119.5640  324.0507    5.8534 H       508        0    0.0000
   3053 H        1121.7570  325.2545    6.0457 H       508        0    0.0000
   3054 H        1121.9023  323.8177    5.0394 H       508        0    0.0000
   3055 C        1122.0129  325.6902    3.9210 C.3     509        0    0.0000
   3056 C        1123.5432  325.6426    3.8488 C.3     509        0    0.0000
   3057 H        1121.5807  325.3402    2.9752 H       509        0    0.0000
   3058 H        1121.6747  326.7247    4.0581 H       509        0    0.0000
   3059 H        1123.9119  324.7102    4.2942 H       509        0    0.0000
   3060 H        1123.8706  325.6424    2.8018 H       509        0    0.0000
   3061 C        1124.2108  326.8538    4.5870 C.3     510        0    0.0000
   3062 C        1125.7397  326.8261    4.4832 C.3     510        0    0.0000
   3063 H        1123.8217  327.7863    4.1599 H       510        0    0.0000
   3064 H        1123.9049  326.8379    5.6404 H       510        0    0.0000
   3065 H        1126.1506  326.0840    5.1791 H       510        0    0.0000
   3066 H        1126.0427  326.5149    3.4759 H       510        0    0.0000
   3067 C        1126.3817  328.2216    4.7956 C.3     511        0    0.0000
   3068 C        1127.8840  328.2509    4.4931 C.3     511        0    0.0000
   3069 H        1125.8644  328.9888    4.2063 H       511        0    0.0000
   3070 H        1126.2058  328.4635    5.8511 H       511        0    0.0000
   3071 H        1128.0636  327.9575    3.4514 H       511        0    0.0000
   3072 H        1128.2703  329.2717    4.6041 H       511        0    0.0000
   3073 C        1128.6982  327.2974    5.4340 C.3     512        0    0.0000
   3074 C        1130.2098  327.5266    5.3261 C.3     512        0    0.0000
   3075 H        1128.3669  327.4535    6.4681 H       512        0    0.0000
   3076 H        1128.4563  326.2581    5.1792 H       512        0    0.0000
   3077 H        1130.7450  326.8129    5.9647 H       512        0    0.0000
   3078 H        1130.5457  327.3429    4.2980 H       512        0    0.0000
   3079 C        1130.6211  328.9817    5.7395 C.3     513        0    0.0000
   3080 C        1132.0090  329.3646    5.2141 C.3     513        0    0.0000
   3081 H        1129.8683  329.6833    5.3595 H       513        0    0.0000
   3082 H        1130.5989  329.0580    6.8338 H       513        0    0.0000
   3083 H        1132.1805  328.9035    4.2334 H       513        0    0.0000
   3084 H        1132.0690  330.4501    5.0665 H       513        0    0.0000
   3085 C        1133.1556  328.9230    6.1875 C.3     514        0    0.0000
   3086 C        1134.5460  329.2596    5.6379 C.3     514        0    0.0000
   3087 H        1133.0051  329.4140    7.1570 H       514        0    0.0000
   3088 H        1133.0725  327.8435    6.3650 H       514        0    0.0000
   3089 H        1134.7261  328.7082    4.7068 H       514        0    0.0000
   3090 H        1134.6038  330.3264    5.3886 H       514        0    0.0000
   3091 C        1135.6868  328.9166    6.6570 C.3     515        0    0.0000
   3092 C        1136.9326  329.7846    6.4482 C.3     515        0    0.0000
   3093 H        1135.3024  329.0493    7.6760 H       515        0    0.0000
   3094 H        1135.9459  327.8557    6.5537 H       515        0    0.0000
   3095 H        1136.8057  330.7517    6.9503 H       515        0    0.0000
   3096 H        1137.8065  329.3045    6.9055 H       515        0    0.0000
   3097 C        1137.2322  330.0387    4.9306 C.3     516        0    0.0000
   3098 C        1138.1200  331.2686    4.7117 C.3     516        0    0.0000
   3099 H        1137.7145  329.1471    4.5112 H       516        0    0.0000
   3100 H        1136.2808  330.1619    4.3982 H       516        0    0.0000
   3101 H        1137.9387  331.6909    3.7155 H       516        0    0.0000
   3102 H        1137.8640  332.0510    5.4368 H       516        0    0.0000
   3103 C        1139.6450  330.9324    4.8481 C.3     517        0    0.0000
   3104 C        1140.5222  332.1887    4.8138 C.3     517        0    0.0000
   3105 H        1139.8044  330.3878    5.7870 H       517        0    0.0000
   3106 H        1139.9309  330.2517    4.0367 H       517        0    0.0000
   3107 H        1140.3776  332.7227    3.8665 H       517        0    0.0000
   3108 H        1140.2233  332.8782    5.6129 H       517        0    0.0000
   3109 C        1142.0450  331.8548    4.9782 C.3     518        0    0.0000
   3110 C        1142.9108  333.1168    5.0615 C.3     518        0    0.0000
   3111 H        1142.1783  331.2469    5.8817 H       518        0    0.0000
   3112 H        1142.3645  331.2347    4.1314 H       518        0    0.0000
   3113 H        1142.7604  333.7357    4.1683 H       518        0    0.0000
   3114 H        1142.6062  333.7257    5.9217 H       518        0    0.0000
   3115 C        1144.4368  332.7828    5.1938 C.3     519        0    0.0000
   3116 C        1145.3087  334.0432    5.1983 C.3     519        0    0.0000
   3117 H        1144.5951  332.2126    6.1175 H       519        0    0.0000
   3118 H        1144.7281  332.1266    4.3645 H       519        0    0.0000
   3119 H        1144.9091  334.7798    4.4904 H       519        0    0.0000
   3120 H        1145.2853  334.5135    6.1891 H       519        0    0.0000
   3121 C        1146.7988  333.7359    4.8201 C.3     520        0    0.0000
   3122 C        1147.7341  334.9050    5.1479 C.3     520        0    0.0000
   3123 H        1147.1210  332.8347    5.3563 H       520        0    0.0000
   3124 H        1146.8508  333.5012    3.7497 H       520        0    0.0000
   3125 H        1147.5416  335.7432    4.4667 H       520        0    0.0000
   3126 H        1147.5366  335.2718    6.1627 H       520        0    0.0000
   3127 C        1149.2458  334.5044    5.0409 C.3     521        0    0.0000
   3128 C        1150.1805  335.6542    5.4324 C.3     521        0    0.0000
   3129 H        1149.4280  333.6355    5.6856 H       521        0    0.0000
   3130 H        1149.4546  334.1832    4.0129 H       521        0    0.0000
   3131 H        1149.7201  336.6167    5.1774 H       521        0    0.0000
   3132 H        1150.3380  335.6580    6.5181 H       521        0    0.0000
   3133 C        1151.5736  335.5561    4.7202 C.3     522        0    0.0000
   3134 C        1152.4991  336.7198    5.0920 C.3     522        0    0.0000
   3135 H        1152.0424  334.6016    4.9901 H       522        0    0.0000
   3136 H        1151.4149  335.5334    3.6349 H       522        0    0.0000
   3137 H        1152.2905  337.5858    4.4519 H       522        0    0.0000
   3138 H        1152.3077  337.0376    6.1244 H       522        0    0.0000
   3139 C        1154.0142  336.3418    4.9524 C.3     523        0    0.0000
   3140 C        1154.9268  337.3093    5.7140 C.3     523        0    0.0000
   3141 H        1154.1588  335.3188    5.3214 H       523        0    0.0000
   3142 H        1154.2797  336.3332    3.8880 H       523        0    0.0000
   3143 H        1154.3525  337.8422    6.4820 H       523        0    0.0000
   3144 H        1155.7124  336.7513    6.2385 H       523        0    0.0000
   3145 C        1155.6007  338.3608    4.7664 C.3     524        0    0.0000
   3146 C        1156.6201  339.2370    5.5028 C.3     524        0    0.0000
   3147 H        1156.0886  337.8300    3.9395 H       524        0    0.0000
   3148 H        1154.8185  338.9875    4.3206 H       524        0    0.0000
   3149 H        1156.1560  340.1861    5.7988 H       524        0    0.0000
   3150 H        1156.9430  338.7424    6.4273 H       524        0    0.0000
   3151 C        1157.8829  339.5436    4.6262 C.3     525        0    0.0000
   3152 C        1159.0015  340.2121    5.4328 C.3     525        0    0.0000
   3153 H        1158.2448  338.6057    4.1870 H       525        0    0.0000
   3154 H        1157.5850  340.1885    3.7902 H       525        0    0.0000
   3155 H        1158.5804  340.9757    6.0985 H       525        0    0.0000
   3156 H        1159.4960  339.4725    6.0747 H       525        0    0.0000
   3157 C        1160.0786  340.8829    4.5122 C.3     526        0    0.0000
   3158 C        1161.2051  341.5385    5.3187 C.3     526        0    0.0000
   3159 H        1160.4919  340.1216    3.8389 H       526        0    0.0000
   3160 H        1159.5858  341.6302    3.8780 H       526        0    0.0000
   3161 H        1161.3385  342.5799    5.0005 H       526        0    0.0000
   3162 H        1160.9393  341.5657    6.3826 H       526        0    0.0000
   3163 C        1162.5688  340.7823    5.1576 C.3     527        0    0.0000
   3164 C        1163.7375  341.5529    5.7817 C.3     527        0    0.0000
   3165 H        1162.4810  339.7919    5.6213 H       527        0    0.0000
   3166 H        1162.7562  340.6148    4.0898 H       527        0    0.0000
   3167 H        1163.5889  342.6320    5.6512 H       527        0    0.0000
   3168 H        1163.7751  341.3685    6.8626 H       527        0    0.0000
   3169 C        1165.1165  341.1529    5.1524 C.3     528        0    0.0000
   3170 C        1166.2949  341.8400    5.8513 C.3     528        0    0.0000
   3171 H        1165.2285  340.0631    5.2100 H       528        0    0.0000
   3172 H        1165.1077  341.4129    4.0868 H       528        0    0.0000
   3173 H        1165.9816  342.2191    6.8318 H       528        0    0.0000
   3174 H        1167.0975  341.1152    6.0355 H       528        0    0.0000
   3175 C        1166.8723  343.0304    5.0103 C.3     529        0    0.0000
   3176 C        1167.9353  343.8228    5.7791 C.3     529        0    0.0000
   3177 H        1167.2986  342.6327    4.0810 H       529        0    0.0000
   3178 H        1166.0465  343.6918    4.7204 H       529        0    0.0000
   3179 H        1167.7894  344.8988    5.6218 H       529        0    0.0000
   3180 H        1167.8311  343.6451    6.8566 H       529        0    0.0000
   3181 C        1169.3918  343.4413    5.3426 C.3     530        0    0.0000
   3182 C        1170.4442  344.3739    5.9527 C.3     530        0    0.0000
   3183 H        1169.5901  342.4044    5.6407 H       530        0    0.0000
   3184 H        1169.4521  343.4715    4.2476 H       530        0    0.0000
   3185 H        1170.1383  345.4199    5.8262 H       530        0    0.0000
   3186 H        1170.5225  344.1972    7.0326 H       530        0    0.0000
   3187 C        1171.8582  344.1790    5.3047 C.3     531        0    0.0000
   3188 C        1172.8888  345.1745    5.8489 C.3     531        0    0.0000
   3189 H        1172.1936  343.1511    5.4904 H       531        0    0.0000
   3190 H        1171.7668  344.2889    4.2170 H       531        0    0.0000
   3191 H        1172.4850  346.1938    5.8085 H       531        0    0.0000
   3192 H        1173.0979  344.9601    6.9042 H       531        0    0.0000
   3193 C        1174.2357  345.1326    5.0481 C.3     532        0    0.0000
   3194 C        1175.2778  346.1043    5.6129 C.3     532        0    0.0000
   3195 H        1174.6272  344.1079    5.0681 H       532        0    0.0000
   3196 H        1174.0299  345.3708    3.9972 H       532        0    0.0000
   3197 H        1174.7859  347.0173    5.9705 H       532        0    0.0000
   3198 H        1175.7789  345.6562    6.4799 H       532        0    0.0000
   3199 C        1176.3612  346.4971    4.5503 C.3     533        0    0.0000
   3200 C        1177.4768  347.3604    5.1498 C.3     533        0    0.0000
   3201 H        1176.7844  345.5804    4.1212 H       533        0    0.0000
   3202 H        1175.8717  347.0330    3.7277 H       533        0    0.0000
   3203 H        1177.8073  348.1087    4.4186 H       533        0    0.0000
   3204 H        1177.0988  347.9139    6.0181 H       533        0    0.0000
   3205 C        1178.7146  346.5071    5.5942 C.3     534        0    0.0000
   3206 C        1179.8184  347.3670    6.2198 C.3     534        0    0.0000
   3207 H        1178.3806  345.7452    6.3093 H       534        0    0.0000
   3208 H        1179.1055  345.9699    4.7211 H       534        0    0.0000
   3209 H        1179.5179  347.6927    7.2235 H       534        0    0.0000
   3210 H        1180.7334  346.7744    6.3414 H       534        0    0.0000
   3211 C        1180.1473  348.6327    5.3552 C.3     535        0    0.0000
   3212 C        1181.5020  349.2496    5.7207 C.3     535        0    0.0000
   3213 H        1180.1366  348.3495    4.2954 H       535        0    0.0000
   3214 H        1179.3481  349.3718    5.4919 H       535        0    0.0000
   3215 H        1182.2734  348.9044    5.0212 H       535        0    0.0000
   3216 H        1181.4561  350.3414    5.6256 H       535        0    0.0000
   3217 C        1181.9451  348.8878    7.1803 C.3     536        0    0.0000
   3218 C        1183.2990  349.5056    7.5463 C.3     536        0    0.0000
   3219 H        1181.1730  349.2321    7.8797 H       536        0    0.0000
   3220 H        1181.9918  347.7959    7.2752 H       536        0    0.0000
   3221 H        1183.4478  350.4408    6.9924 H       536        0    0.0000
   3222 H        1183.3186  349.7643    8.6123 H       536        0    0.0000
   3223 C        1184.4952  348.5404    7.2385 C.3     537        0    0.0000
   3224 C        1185.8304  349.2857    7.1326 C.3     537        0    0.0000
   3225 H        1184.5497  347.7816    8.0290 H       537        0    0.0000
   3226 H        1184.2872  348.0065    6.3030 H       537        0    0.0000
   3227 H        1185.7605  350.2563    7.6390 H       537        0    0.0000
   3228 H        1186.6188  348.7194    7.6437 H       537        0    0.0000
   3229 C        1186.2623  349.5222    5.6443 C.3     538        0    0.0000
   3230 C        1187.1096  350.7888    5.4797 C.3     538        0    0.0000
   3231 H        1186.8232  348.6463    5.2954 H       538        0    0.0000
   3232 H        1185.3618  349.5884    5.0211 H       538        0    0.0000
   3233 H        1186.8295  351.3114    4.5569 H       538        0    0.0000
   3234 H        1186.9137  351.4824    6.3066 H       538        0    0.0000
   3235 C        1188.6450  350.4748    5.4364 C.3     539        0    0.0000
   3236 C        1189.4913  351.6405    5.9600 C.3     539        0    0.0000
   3237 H        1188.8385  349.5731    6.0303 H       539        0    0.0000
   3238 H        1188.9286  350.2385    4.4032 H       539        0    0.0000
   3239 H        1189.0359  352.5957    5.6705 H       539        0    0.0000
   3240 H        1189.5173  351.6235    7.0566 H       539        0    0.0000
   3241 C        1190.9620  351.5972    5.4189 C.3     540        0    0.0000
   3242 C        1191.9838  352.0223    6.4793 C.3     540        0    0.0000
   3243 H        1191.1812  350.5799    5.0718 H       540        0    0.0000
   3244 H        1191.0355  352.2521    4.5418 H       540        0    0.0000
   3245 H        1191.5634  351.8848    7.4832 H       540        0    0.0000
   3246 H        1192.8743  351.3844    6.4206 H       540        0    0.0000
   3247 C        1192.4222  353.5184    6.3156 C.3     541        0    0.0000
   3248 C        1193.7924  353.7943    6.9449 C.3     541        0    0.0000
   3249 H        1192.4424  353.7662    5.2470 H       541        0    0.0000
   3250 H        1191.6614  354.1622    6.7740 H       541        0    0.0000
   3251 H        1193.7721  354.7477    7.4871 H       541        0    0.0000
   3252 H        1194.0311  353.0175    7.6819 H       541        0    0.0000
   3253 C        1194.9377  353.8455    5.8757 C.3     542        0    0.0000
   3254 C        1196.3042  354.1436    6.5023 C.3     542        0    0.0000
   3255 H        1194.9688  352.8860    5.3445 H       542        0    0.0000
   3256 H        1194.6909  354.6108    5.1295 H       542        0    0.0000
   3257 H        1196.2588  355.0766    7.0777 H       542        0    0.0000
   3258 H        1196.5748  353.3501    7.2099 H       542        0    0.0000
   3259 C        1197.4370  354.2685    5.4258 C.3     543        0    0.0000
   3260 C        1198.7178  354.8851    5.9992 C.3     543        0    0.0000
   3261 H        1197.6489  353.2723    5.0182 H       543        0    0.0000
   3262 H        1197.0669  354.8779    4.5921 H       543        0    0.0000
   3263 H        1199.3344  355.2930    5.1886 H       543        0    0.0000
   3264 H        1198.4680  355.7254    6.6587 H       543        0    0.0000
   3265 C        1199.5682  353.8445    6.8064 C.3     544        0    0.0000
   3266 C        1200.7814  354.4888    7.4864 C.3     544        0    0.0000
   3267 H        1198.9250  353.3686    7.5569 H       544        0    0.0000
   3268 H        1199.8969  353.0511    6.1239 H       544        0    0.0000
   3269 H        1201.4690  353.7120    7.8435 H       544        0    0.0000
   3270 H        1201.3398  355.0957    6.7632 H       544        0    0.0000
   3271 C        1200.3712  355.3961    8.6973 C.3     545        0    0.0000
   3272 C        1201.3186  356.5873    8.8778 C.3     545        0    0.0000
   3273 H        1199.3452  355.7519    8.5411 H       545        0    0.0000
   3274 H        1200.3574  354.7851    9.6084 H       545        0    0.0000
   3275 H        1201.0510  357.3899    8.1793 H       545        0    0.0000
   3276 H        1201.2141  357.0014    9.8884 H       545        0    0.0000
   3277 C        1202.8182  356.1943    8.6454 C.3     546        0    0.0000
   3278 C        1203.7183  357.4212    8.4605 C.3     546        0    0.0000
   3279 H        1203.1643  355.5994    9.4996 H       546        0    0.0000
   3280 H        1202.8811  355.5453    7.7632 H       546        0    0.0000
   3281 H        1203.5625  357.8551    7.4649 H       546        0    0.0000
   3282 H        1203.4502  358.1974    9.1880 H       546        0    0.0000
   3283 C        1205.2377  357.0742    8.6286 C.3     547        0    0.0000
   3284 C        1206.0682  357.4969    7.4118 C.3     547        0    0.0000
   3285 H        1205.6154  357.5688    9.5321 H       547        0    0.0000
   3286 H        1205.3374  355.9945    8.7954 H       547        0    0.0000
   3287 H        1205.6277  357.0863    6.4947 H       547        0    0.0000
   3288 H        1206.0530  358.5889    7.3069 H       547        0    0.0000
   3289 C        1207.5579  357.0199    7.5145 C.3     548        0    0.0000
   3290 C        1208.5513  358.1691    7.3101 C.3     548        0    0.0000
   3291 H        1207.7144  356.5578    8.4971 H       548        0    0.0000
   3292 H        1207.7305  356.2360    6.7667 H       548        0    0.0000
   3293 H        1208.6249  358.4176    6.2441 H       548        0    0.0000
   3294 H        1208.1921  359.0717    7.8199 H       548        0    0.0000
   3295 C        1209.9819  357.8204    7.8476 C.3     549        0    0.0000
   3296 C        1211.0787  358.6306    7.1478 C.3     549        0    0.0000
   3297 H        1210.0085  358.0062    8.9284 H       549        0    0.0000
   3298 H        1210.1602  356.7470    7.7080 H       549        0    0.0000
   3299 H        1211.9272  357.9805    6.9012 H       549        0    0.0000
   3300 H        1210.7025  359.0314    6.1984 H       549        0    0.0000
   3301 C        1211.5931  359.8199    8.0300 C.3     550        0    0.0000
   3302 C        1212.9539  360.3459    7.5597 C.3     550        0    0.0000
   3303 H        1210.8494  360.6259    8.0054 H       550        0    0.0000
   3304 H        1211.6595  359.4841    9.0723 H       550        0    0.0000
   3305 H        1213.0463  360.2309    6.4727 H       550        0    0.0000
   3306 H        1213.0355  361.4194    7.7709 H       550        0    0.0000
   3307 C        1214.1489  359.6028    8.2501 C.3     551        0    0.0000
   3308 C        1215.5017  359.9870    7.6407 C.3     551        0    0.0000
   3309 H        1214.1390  359.8368    9.3219 H       551        0    0.0000
   3310 H        1213.9905  358.5209    8.1624 H       551        0    0.0000
   3311 H        1216.2017  359.1458    7.7179 H       551        0    0.0000
   3312 H        1215.3849  360.2025    6.5714 H       551        0    0.0000
   3313 C        1216.1355  361.2376    8.3419 C.3     552        0    0.0000
   3314 C        1217.4526  361.6661    7.6858 C.3     552        0    0.0000
   3315 H        1215.4141  362.0634    8.3116 H       552        0    0.0000
   3316 H        1216.3015  361.0030    9.4007 H       552        0    0.0000
   3317 H        1217.5133  361.2648    6.6665 H       552        0    0.0000
   3318 H        1217.4904  362.7591    7.5967 H       552        0    0.0000
   3319 C        1218.7048  361.1815    8.4950 C.3     553        0    0.0000
   3320 C        1220.0201  361.5001    7.7757 C.3     553        0    0.0000
   3321 H        1218.6923  361.6566    9.4839 H       553        0    0.0000
   3322 H        1218.6204  360.1008    8.6636 H       553        0    0.0000
   3323 H        1220.7697  360.7324    8.0047 H       553        0    0.0000
   3324 H        1219.8695  361.4790    6.6892 H       553        0    0.0000
   3325 C        1220.5935  362.9022    8.1791 C.3     554        0    0.0000
   3326 C        1222.0187  363.1186    7.6585 C.3     554        0    0.0000
   3327 H        1219.9280  363.6820    7.7886 H       554        0    0.0000
   3328 H        1220.5750  362.9907    9.2724 H       554        0    0.0000
   3329 H        1222.1573  362.5864    6.7092 H       554        0    0.0000
   3330 H        1222.1855  364.1828    7.4502 H       554        0    0.0000
   3331 C        1223.1044  362.6267    8.6768 C.3     555        0    0.0000
   3332 C        1224.5270  362.7751    8.1261 C.3     555        0    0.0000
   3333 H        1222.9999  363.1973    9.6080 H       555        0    0.0000
   3334 H        1222.9052  361.5771    8.9264 H       555        0    0.0000
   3335 H        1225.1833  362.0170    8.5709 H       555        0    0.0000
   3336 H        1224.5314  362.5995    7.0432 H       555        0    0.0000
   3337 C        1225.1290  364.1944    8.4104 C.3     556        0    0.0000
   3338 C        1226.5267  364.3644    7.8046 C.3     556        0    0.0000
   3339 H        1224.4490  364.9543    8.0060 H       556        0    0.0000
   3340 H        1225.1676  364.3513    9.4955 H       556        0    0.0000
   3341 H        1227.0269  365.2329    8.2507 H       556        0    0.0000
   3342 H        1227.1466  363.4897    8.0377 H       556        0    0.0000
   3343 C        1226.4813  364.5514    6.2489 C.3     557        0    0.0000
   3344 C        1227.8583  364.8832    5.6633 C.3     557        0    0.0000
   3345 H        1226.0903  363.6330    5.7937 H       557        0    0.0000
   3346 H        1225.7683  365.3500    6.0095 H       557        0    0.0000
   3347 H        1228.5486  364.0468    5.8284 H       557        0    0.0000
   3348 H        1227.7822  365.0194    4.5773 H       557        0    0.0000
   3349 C        1228.4750  366.1795    6.2932 C.3     558        0    0.0000
   3350 C        1229.9912  366.0668    6.4865 C.3     558        0    0.0000
   3351 H        1228.2408  367.0333    5.6453 H       558        0    0.0000
   3352 H        1227.9862  366.3715    7.2564 H       558        0    0.0000
   3353 H        1230.4310  365.4749    5.6742 H       558        0    0.0000
   3354 H        1230.4517  367.0612    6.4365 H       558        0    0.0000
   3355 C        1230.3679  365.4037    7.8561 C.3     559        0    0.0000
   3356 C        1231.8843  365.2982    8.0528 C.3     559        0    0.0000
   3357 H        1229.9233  365.9924    8.6681 H       559        0    0.0000
   3358 H        1229.9121  364.4069    7.9036 H       559        0    0.0000
   3359 H        1232.1086  364.6335    8.8963 H       559        0    0.0000
   3360 H        1232.3483  364.8494    7.1658 H       559        0    0.0000
   3361 C        1232.5471  366.6935    8.3187 C.3     560        0    0.0000
   3362 C        1234.0283  366.7176    7.9263 C.3     560        0    0.0000
   3363 H        1231.9969  367.4590    7.7576 H       560        0    0.0000
   3364 H        1232.4357  366.9411    9.3817 H       560        0    0.0000
   3365 H        1234.5350  367.5558    8.4207 H       560        0    0.0000
   3366 H        1234.5240  365.8020    8.2721 H       560        0    0.0000
   3367 C        1234.2307  366.8475    6.3772 C.3     561        0    0.0000
   3368 C        1235.7097  366.9642    5.9923 C.3     561        0    0.0000
   3369 H        1233.7825  365.9741    5.8876 H       561        0    0.0000
   3370 H        1233.6787  367.7262    6.0210 H       561        0    0.0000
   3371 H        1236.2603  366.0825    6.3429 H       561        0    0.0000
   3372 H        1235.8136  366.9869    4.9004 H       561        0    0.0000
   3373 C        1236.3796  368.2491    6.5904 C.3     562        0    0.0000
   3374 C        1237.8964  368.0938    6.7475 C.3     562        0    0.0000
   3375 H        1236.1544  369.1017    5.9378 H       562        0    0.0000
   3376 H        1235.9211  368.4669    7.5629 H       562        0    0.0000
   3377 H        1238.3004  367.4937    5.9228 H       562        0    0.0000
   3378 H        1238.3828  369.0753    6.6908 H       562        0    0.0000
   3379 C        1238.2865  367.4141    8.1053 C.3     563        0    0.0000
   3380 C        1239.8047  367.3144    8.2898 C.3     563        0    0.0000
   3381 H        1237.8445  367.9892    8.9283 H       563        0    0.0000
   3382 H        1237.8365  366.4142    8.1423 H       563        0    0.0000
   3383 H        1240.0376  366.6822    9.1556 H       563        0    0.0000
   3384 H        1240.2589  366.8317    7.4157 H       563        0    0.0000
   3385 C        1240.4717  368.7182    8.4953 C.3     564        0    0.0000
   3386 C        1241.9186  368.7532    7.9905 C.3     564        0    0.0000
   3387 H        1239.8727  369.4742    7.9728 H       564        0    0.0000
   3388 H        1240.4392  368.9724    9.5620 H       564        0    0.0000
   3389 H        1242.4647  369.5743    8.4710 H       564        0    0.0000
   3390 H        1242.4360  367.8262    8.2672 H       564        0    0.0000
   3391 C        1242.0010  368.9332    6.4355 C.3     565        0    0.0000
   3392 C        1243.4154  369.2920    5.9664 C.3     565        0    0.0000
   3393 H        1241.6692  368.0051    5.9539 H       565        0    0.0000
   3394 H        1241.2943  369.7156    6.1321 H       565        0    0.0000
   3395 H        1244.1194  368.5020    6.2560 H       565        0    0.0000
   3396 H        1243.4442  369.3538    4.8714 H       565        0    0.0000
   3397 C        1243.9114  370.6542    6.5627 C.3     566        0    0.0000
   3398 C        1245.4335  370.6917    6.7383 C.3     566        0    0.0000
   3399 H        1243.5889  371.4680    5.9015 H       566        0    0.0000
   3400 H        1243.4171  370.8183    7.5283 H       566        0    0.0000
   3401 H        1245.9271  370.3861    5.8074 H       566        0    0.0000
   3402 H        1245.7628  371.7171    6.9475 H       566        0    0.0000
   3403 C        1245.9210  369.7577    7.8990 C.3     567        0    0.0000
   3404 C        1247.4496  369.7011    7.9959 C.3     567        0    0.0000
   3405 H        1245.4973  370.1182    8.8446 H       567        0    0.0000
   3406 H        1245.5168  368.7509    7.7362 H       567        0    0.0000
   3407 H        1247.7548  368.8694    8.6430 H       567        0    0.0000
   3408 H        1247.8821  369.5060    7.0068 H       567        0    0.0000
   3409 C        1248.0587  371.0306    8.5606 C.3     568        0    0.0000
   3410 C        1249.4907  371.2685    8.0685 C.3     568        0    0.0000
   3411 H        1247.4152  371.8683    8.2643 H       568        0    0.0000
   3412 H        1248.0394  370.9908    9.6566 H       568        0    0.0000
   3413 H        1249.4746  371.7445    7.0804 H       568        0    0.0000
   3414 H        1250.0103  371.9601    8.7432 H       568        0    0.0000
   3415 C        1250.3154  369.9386    7.9752 C.3     569        0    0.0000
   3416 C        1251.7220  370.1657    7.4106 C.3     569        0    0.0000
   3417 H        1250.3790  369.4912    8.9748 H       569        0    0.0000
   3418 H        1249.7677  369.2264    7.3456 H       569        0    0.0000
   3419 H        1252.0426  369.2884    6.8353 H       569        0    0.0000
   3420 H        1251.7156  371.0137    6.7146 H       569        0    0.0000
   3421 C        1252.7765  370.4443    8.5367 C.3     570        0    0.0000
   3422 C        1253.9902  371.2223    8.0163 C.3     570        0    0.0000
   3423 H        1252.2903  371.0032    9.3459 H       570        0    0.0000
   3424 H        1253.0985  369.4867    8.9642 H       570        0    0.0000
   3425 H        1253.8285  372.3000    8.1424 H       570        0    0.0000
   3426 H        1254.8810  370.9666    8.6035 H       570        0    0.0000
   3427 C        1254.2804  370.9283    6.5040 C.3     571        0    0.0000
   3428 C        1255.5043  371.6932    5.9881 C.3     571        0    0.0000
   3429 H        1254.4298  369.8490    6.3760 H       571        0    0.0000
   3430 H        1253.3939  371.1956    5.9154 H       571        0    0.0000
   3431 H        1255.2844  372.1386    5.0099 H       571        0    0.0000
   3432 H        1255.7428  372.5222    6.6655 H       571        0    0.0000
   3433 C        1256.7661  370.7727    5.8519 C.3     572        0    0.0000
   3434 C        1258.0646  371.5133    6.1910 C.3     572        0    0.0000
   3435 H        1256.6442  369.9054    6.5127 H       572        0    0.0000
   3436 H        1256.8113  370.3840    4.8271 H       572        0    0.0000
   3437 H        1258.8472  371.2500    5.4688 H       572        0    0.0000
   3438 H        1257.9119  372.5966    6.1093 H       572        0    0.0000
   3439 C        1258.5773  371.1826    7.6350 C.3     573        0    0.0000
   3440 C        1259.6426  372.1747    8.1146 C.3     573        0    0.0000
   3441 H        1257.7228  371.1864    8.3231 H       573        0    0.0000
   3442 H        1258.9825  370.1633    7.6415 H       573        0    0.0000
   3443 H        1259.1686  373.1129    8.4287 H       573        0    0.0000
   3444 H        1260.1610  371.7736    8.9945 H       573        0    0.0000
   3445 C        1260.7028  372.4911    7.0041 C.3     574        0    0.0000
   3446 C        1261.5217  373.7465    7.3237 C.3     574        0    0.0000
   3447 H        1261.3680  371.6259    6.8936 H       574        0    0.0000
   3448 H        1260.1842  372.6142    6.0451 H       574        0    0.0000
   3449 H        1260.8613  374.5441    7.6862 H       574        0    0.0000
   3450 H        1262.2338  373.5356    8.1311 H       574        0    0.0000
   3451 C        1262.3127  374.2731    6.0769 C.3     575        0    0.0000
   3452 C        1263.6617  374.8901    6.4629 C.3     575        0    0.0000
   3453 H        1262.4657  373.4417    5.3779 H       575        0    0.0000
   3454 H        1261.6958  375.0146    5.5541 H       575        0    0.0000
   3455 H        1263.7838  375.8641    5.9732 H       575        0    0.0000
   3456 H        1263.6954  375.0745    7.5437 H       575        0    0.0000
   3457 C        1264.8695  373.9715    6.0692 C.3     576        0    0.0000
   3458 C        1266.1750  374.4076    6.7433 C.3     576        0    0.0000
   3459 H        1264.6313  372.9367    6.3448 H       576        0    0.0000
   3460 H        1264.9856  373.9883    4.9783 H       576        0    0.0000
   3461 H        1266.1158  375.4652    7.0291 H       576        0    0.0000
   3462 H        1266.3286  373.8392    7.6689 H       576        0    0.0000
   3463 C        1267.4207  374.2047    5.8133 C.3     577        0    0.0000
   3464 C        1268.7375  374.5290    6.5272 C.3     577        0    0.0000
   3465 H        1267.4312  373.1668    5.4578 H       577        0    0.0000
   3466 H        1267.3071  374.8404    4.9264 H       577        0    0.0000
   3467 H        1268.9309  375.6082    6.4878 H       577        0    0.0000
   3468 H        1268.6663  374.2601    7.5884 H       577        0    0.0000
   3469 C        1269.9575  373.7738    5.8955 C.3     578        0    0.0000
   3470 C        1271.2957  374.4286    6.2556 C.3     578        0    0.0000
   3471 H        1269.9443  372.7318    6.2382 H       578        0    0.0000
   3472 H        1269.8322  373.7488    4.8059 H       578        0    0.0000
   3473 H        1271.4434  374.4097    7.3425 H       578        0    0.0000
   3474 H        1272.1235  373.8593    5.8152 H       578        0    0.0000
   3475 C        1271.3831  375.9131    5.7596 C.3     579        0    0.0000
   3476 C        1272.7307  376.5602    6.0977 C.3     579        0    0.0000
   3477 H        1271.2174  375.9340    4.6753 H       579        0    0.0000
   3478 H        1270.5659  376.4866    6.2142 H       579        0    0.0000
   3479 H        1273.2404  376.8705    5.1770 H       579        0    0.0000
   3480 H        1272.5731  377.4688    6.6920 H       579        0    0.0000
   3481 C        1273.6715  375.5920    6.8944 C.3     580        0    0.0000
   3482 C        1275.0006  376.2547    7.2731 C.3     580        0    0.0000
   3483 H        1273.1484  375.2548    7.7979 H       580        0    0.0000
   3484 H        1273.8567  374.6984    6.2855 H       580        0    0.0000
   3485 H        1274.8722  377.3418    7.3444 H       580        0    0.0000
   3486 H        1275.3241  375.9101    8.2631 H       580        0    0.0000
   3487 C        1276.1348  375.9470    6.2355 C.3     581        0    0.0000
   3488 C        1277.5216  376.3390    6.7575 C.3     581        0    0.0000
   3489 H        1276.1123  374.8772    5.9942 H       581        0    0.0000
   3490 H        1275.9175  376.4848    5.3043 H       581        0    0.0000
   3491 H        1277.4705  376.5615    7.8305 H       581        0    0.0000
   3492 H        1278.2178  375.4991    6.6429 H       581        0    0.0000
   3493 C        1278.1069  377.5864    6.0101 C.3     582        0    0.0000
   3494 C        1279.6241  377.7112    6.1884 C.3     582        0    0.0000
   3495 H        1277.8585  377.5088    4.9444 H       582        0    0.0000
   3496 H        1277.6086  378.4890    6.3849 H       582        0    0.0000
   3497 H        1279.9768  378.6573    5.7596 H       582        0    0.0000
   3498 H        1279.8767  377.7356    7.2558 H       582        0    0.0000
   3499 C        1280.4010  376.5294    5.5123 C.3     583        0    0.0000
   3500 C        1281.9053  376.5824    5.8010 C.3     583        0    0.0000
   3501 H        1279.9825  375.5806    5.8703 H       583        0    0.0000
   3502 H        1280.2242  376.5633    4.4301 H       583        0    0.0000
   3503 H        1282.0852  377.0587    6.7729 H       583        0    0.0000
   3504 H        1282.3114  375.5656    5.8686 H       583        0    0.0000
   3505 C        1282.6945  377.3696    4.6988 C.3     584        0    0.0000
   3506 C        1283.8145  378.2325    5.2907 C.3     584        0    0.0000
   3507 H        1283.1118  376.6517    3.9821 H       584        0    0.0000
   3508 H        1281.9899  377.9987    4.1407 H       584        0    0.0000
   3509 H        1283.9125  379.1647    4.7204 H       584        0    0.0000
   3510 H        1283.5652  378.5178    6.3203 H       584        0    0.0000
   3511 C        1285.1967  377.4930    5.2917 C.3     585        0    0.0000
   3512 C        1286.2992  378.3235    5.9579 C.3     585        0    0.0000
   3513 H        1285.0836  376.5329    5.8103 H       585        0    0.0000
   3514 H        1285.4742  377.2610    4.2561 H       585        0    0.0000
   3515 H        1286.2516  379.3620    5.6073 H       585        0    0.0000
   3516 H        1286.1459  378.3504    7.0439 H       585        0    0.0000
   3517 C        1287.7306  377.7559    5.6637 C.3     586        0    0.0000
   3518 C        1288.8257  378.5273    6.4086 C.3     586        0    0.0000
   3519 H        1287.7565  376.6968    5.9485 H       586        0    0.0000
   3520 H        1287.9115  377.7960    4.5824 H       586        0    0.0000
   3521 H        1289.1002  379.4283    5.8461 H       586        0    0.0000
   3522 H        1288.4512  378.8658    7.3826 H       586        0    0.0000
   3523 C        1290.1128  377.6616    6.6353 C.3     587        0    0.0000
   3524 C        1291.3784  378.3567    6.1213 C.3     587        0    0.0000
   3525 H        1290.2103  377.4470    7.7067 H       587        0    0.0000
   3526 H        1289.9827  376.6960    6.1310 H       587        0    0.0000
   3527 H        1292.0497  377.6221    5.6593 H       587        0    0.0000
   3528 H        1291.1185  379.0811    5.3396 H       587        0    0.0000
   3529 C        1292.1528  379.1011    7.2631 C.3     588        0    0.0000
   3530 C        1293.4506  379.7438    6.7612 C.3     588        0    0.0000
   3531 H        1291.4962  379.8667    7.6946 H       588        0    0.0000
   3532 H        1292.3729  378.3860    8.0654 H       588        0    0.0000
   3533 H        1293.2479  380.3576    5.8749 H       588        0    0.0000
   3534 H        1293.8564  380.4180    7.5255 H       588        0    0.0000
   3535 C        1294.5403  378.6767    6.3985 C.3     589        0    0.0000
   3536 C        1295.7411  379.2957    5.6747 C.3     589        0    0.0000
   3537 H        1294.8708  378.1815    7.3199 H       589        0    0.0000
   3538 H        1294.0817  377.9019    5.7716 H       589        0    0.0000
   3539 H        1296.1012  378.6149    4.8934 H       589        0    0.0000
   3540 H        1295.4397  380.2224    5.1707 H       589        0    0.0000
   3541 C        1296.9244  379.6140    6.6522 C.3     590        0    0.0000
   3542 C        1298.1334  380.2133    5.9252 C.3     590        0    0.0000
   3543 H        1296.5685  380.3072    7.4246 H       590        0    0.0000
   3544 H        1297.2153  378.6905    7.1677 H       590        0    0.0000
   3545 H        1298.0874  379.9713    4.8562 H       590        0    0.0000
   3546 H        1298.1138  381.3076    6.0017 H       590        0    0.0000
   3547 C        1299.4935  379.6907    6.5034 C.3     591        0    0.0000
   3548 C        1300.6990  380.2107    5.7125 C.3     591        0    0.0000
   3549 H        1299.5721  379.9972    7.5538 H       591        0    0.0000
   3550 H        1299.4830  378.5937    6.4951 H       591        0    0.0000
   3551 H        1300.6566  379.8453    4.6789 H       591        0    0.0000
   3552 H        1300.6707  381.3061    5.6607 H       591        0    0.0000
   3553 C        1302.0620  379.7699    6.3489 C.3     592        0    0.0000
   3554 C        1303.2399  380.6059    5.8361 C.3     592        0    0.0000
   3555 H        1301.9868  379.8553    7.4400 H       592        0    0.0000
   3556 H        1302.2291  378.7085    6.1268 H       592        0    0.0000
   3557 H        1303.0084  381.0130    4.8441 H       592        0    0.0000
   3558 H        1303.4080  381.4645    6.4979 H       592        0    0.0000
   3559 C        1304.5645  379.7723    5.7437 C.3     593        0    0.0000
   3560 C        1305.7305  380.5946    5.1839 C.3     593        0    0.0000
   3561 H        1304.8154  379.3954    6.7429 H       593        0    0.0000
   3562 H        1304.3860  378.8937    5.1112 H       593        0    0.0000
   3563 H        1305.4447  381.0496    4.2273 H       593        0    0.0000
   3564 H        1305.9705  381.4197    5.8660 H       593        0    0.0000
   3565 C        1307.0183  379.7279    4.9666 C.3     594        0    0.0000
   3566 C        1308.3038  380.5260    5.2112 C.3     594        0    0.0000
   3567 H        1306.9795  378.8620    5.6391 H       594        0    0.0000
   3568 H        1307.0100  379.3326    3.9432 H       594        0    0.0000
   3569 H        1308.0857  381.4140    5.8173 H       594        0    0.0000
   3570 H        1309.0186  379.9216    5.7835 H       594        0    0.0000
   3571 C        1308.9839  380.9813    3.8743 C.3     595        0    0.0000
   3572 C        1310.3221  381.6887    4.1149 C.3     595        0    0.0000
   3573 H        1309.1328  380.1018    3.2359 H       595        0    0.0000
   3574 H        1308.2972  381.6477    3.3376 H       595        0    0.0000
   3575 H        1310.3939  382.5827    3.4834 H       595        0    0.0000
   3576 H        1310.3845  382.0318    5.1550 H       595        0    0.0000
   3577 C        1311.5480  380.7587    3.8153 C.3     596        0    0.0000
   3578 C        1312.8834  381.5018    3.9339 C.3     596        0    0.0000
   3579 H        1311.5266  379.9105    4.5106 H       596        0    0.0000
   3580 H        1311.4376  380.3422    2.8065 H       596        0    0.0000
   3581 H        1313.2188  381.8331    2.9433 H       596        0    0.0000
   3582 H        1312.7581  382.4057    4.5426 H       596        0    0.0000
   3583 C        1314.0035  380.6119    4.5751 C.3     597        0    0.0000
   3584 C        1315.3685  381.3090    4.5779 C.3     597        0    0.0000
   3585 H        1313.7091  380.3575    5.6007 H       597        0    0.0000
   3586 H        1314.0647  379.6670    4.0211 H       597        0    0.0000
   3587 H        1315.3823  382.1120    3.8306 H       597        0    0.0000
   3588 H        1315.5476  381.7816    5.5516 H       597        0    0.0000
   3589 C        1316.5432  380.3162    4.2744 C.3     598        0    0.0000
   3590 C        1317.8604  381.0453    3.9868 C.3     598        0    0.0000
   3591 H        1316.6659  379.6414    5.1306 H       598        0    0.0000
   3592 H        1316.2648  379.6904    3.4174 H       598        0    0.0000
   3593 H        1317.6918  381.8573    3.2686 H       598        0    0.0000
   3594 H        1318.2408  381.5104    4.9046 H       598        0    0.0000
   3595 C        1318.9585  380.0843    3.4144 C.3     599        0    0.0000
   3596 C        1320.3776  380.5812    3.7118 C.3     599        0    0.0000
   3597 H        1318.8124  379.0851    3.8431 H       599        0    0.0000
   3598 H        1318.8134  379.9867    2.3314 H       599        0    0.0000
   3599 H        1320.3539  381.3287    4.5144 H       599        0    0.0000
   3600 H        1320.9988  379.7519    4.0718 H       599        0    0.0000
   3601 C        1321.0615  381.2147    2.4515 C.3     600        0    0.0000
   3602 C        1322.3191  382.0130    2.8129 C.3     600        0    0.0000
   3603 H        1321.3143  380.4134    1.7462 H       600        0    0.0000
   3604 H        1320.3368  381.8637    1.9445 H       600        0    0.0000
   3605 H        1322.3455  382.9509    2.2443 H       600        0    0.0000
   3606 H        1322.2976  382.2886    3.8745 H       600        0    0.0000
   3607 C        1323.6349  381.2108    2.5256 C.3     601        0    0.0000
   3608 C        1324.8905  381.9879    2.9365 C.3     601        0    0.0000
   3609 H        1323.5912  380.2555    3.0630 H       601        0    0.0000
   3610 H        1323.6753  380.9690    1.4562 H       601        0    0.0000
   3611 H        1324.7275  383.0644    2.8014 H       601        0    0.0000
   3612 H        1325.0972  381.8320    4.0026 H       601        0    0.0000
   3613 C        1326.1512  381.5598    2.1094 C.3     602        0    0.0000
   3614 C        1327.4237  381.5300    2.9633 C.3     602        0    0.0000
   3615 H        1325.9683  380.5703    1.6726 H       602        0    0.0000
   3616 H        1326.2772  382.2560    1.2708 H       602        0    0.0000
   3617 H        1327.8956  382.5204    2.9696 H       602        0    0.0000
   3618 H        1327.1722  381.2943    4.0049 H       602        0    0.0000
   3619 C        1328.4634  380.4782    2.4439 C.3     603        0    0.0000
   3620 C        1329.9095  380.9539    2.6218 C.3     603        0    0.0000
   3621 H        1328.3093  379.5338    2.9807 H       603        0    0.0000
   3622 H        1328.2618  380.2749    1.3848 H       603        0    0.0000
   3623 H        1329.9580  382.0471    2.5428 H       603        0    0.0000
   3624 H        1330.2701  380.6942    3.6248 H       603        0    0.0000
   3625 C        1330.8763  380.3269    1.5590 C.3     604        0    0.0000
   3626 C        1332.3167  380.8260    1.7181 C.3     604        0    0.0000
   3627 H        1330.8441  379.2344    1.6529 H       604        0    0.0000
   3628 H        1330.5032  380.5680    0.5559 H       604        0    0.0000
   3629 H        1332.9968  379.9758    1.8517 H       604        0    0.0000
   3630 H        1332.6375  381.3458    0.8068 H       604        0    0.0000
   3631 C        1332.4773  381.7982    2.9373 C.3     605        0    0.0000
   3632 C        1333.8593  382.4600    2.9743 C.3     605        0    0.0000
   3633 H        1331.6946  382.5649    2.8839 H       605        0    0.0000
   3634 H        1332.3048  381.2357    3.8633 H       605        0    0.0000
   3635 H        1334.2957  382.4762    1.9679 H       605        0    0.0000
   3636 H        1333.7673  383.5051    3.2948 H       605        0    0.0000
   3637 C        1334.8466  381.7200    3.9414 C.3     606        0    0.0000
   3638 C        1336.2733  381.6647    3.3840 C.3     606        0    0.0000
   3639 H        1334.8413  382.2321    4.9116 H       606        0    0.0000
   3640 H        1334.4725  380.7042    4.1193 H       606        0    0.0000
   3641 H        1336.4091  382.4404    2.6202 H       606        0    0.0000
   3642 H        1336.9969  381.8771    4.1808 H       606        0    0.0000
   3643 C        1336.6111  380.2699    2.7532 C.3     607        0    0.0000
   3644 C        1338.0682  380.1811    2.2864 C.3     607        0    0.0000
   3645 H        1336.4050  379.4875    3.4941 H       607        0    0.0000
   3646 H        1335.9340  380.0904    1.9089 H       607        0    0.0000
   3647 H        1338.6633  380.9726    2.7584 H       607        0    0.0000
   3648 H        1338.5068  379.2264    2.6022 H       607        0    0.0000
   3649 C        1338.2021  380.3083    0.7297 C.3     608        0    0.0000
   3650 C        1339.3313  381.2602    0.3197 C.3     608        0    0.0000
   3651 H        1338.3788  379.3114    0.3073 H       608        0    0.0000
   3652 H        1337.2469  380.6594    0.3201 H       608        0    0.0000
   3653 H        1339.0317  381.8418   -0.5611 H       608        0    0.0000
   3654 H        1339.5250  381.9820    1.1227 H       608        0    0.0000
   3655 C        1340.6619  380.4983   -0.0066 C.3     609        0    0.0000
   3656 C        1341.9037  381.2904    0.4169 C.3     609        0    0.0000
   3657 H        1340.6455  379.5253    0.5001 H       609        0    0.0000
   3658 H        1340.6963  380.2921   -1.0835 H       609        0    0.0000
   3659 H        1342.3097  381.8400   -0.4413 H       609        0    0.0000
   3660 H        1341.6331  382.0396    1.1711 H       609        0    0.0000
   3661 C        1343.0266  380.3665    1.0026 C.3     610        0    0.0000
   3662 C        1344.3817  381.0783    1.0817 C.3     610        0    0.0000
   3663 H        1342.7209  380.0276    2.0002 H       610        0    0.0000
   3664 H        1343.1088  379.4695    0.3765 H       610        0    0.0000
   3665 H        1344.4791  381.7943    0.2563 H       610        0    0.0000
   3666 H        1344.4489  381.6575    2.0109 H       610        0    0.0000
   3667 C        1345.5844  380.0743    1.0243 C.3     611        0    0.0000
   3668 C        1346.8853  380.7510    0.5782 C.3     611        0    0.0000
   3669 H        1345.7158  379.6229    2.0154 H       611        0    0.0000
   3670 H        1345.3304  379.2575    0.3372 H       611        0    0.0000
   3671 H        1346.7748  381.1442   -0.4400 H       611        0    0.0000
   3672 H        1347.1038  381.6095    1.2254 H       611        0    0.0000
   3673 C        1348.1071  379.7696    0.6110 C.3     612        0    0.0000
   3674 C        1349.4183  380.4608    0.2212 C.3     612        0    0.0000
   3675 H        1348.1915  379.3436    1.6185 H       612        0    0.0000
   3676 H        1347.9065  378.9325   -0.0692 H       612        0    0.0000
   3677 H        1349.4545  380.6136   -0.8647 H       612        0    0.0000
   3678 H        1349.4702  381.4556    0.6810 H       612        0    0.0000
   3679 C        1350.6776  379.6360    0.6578 C.3     613        0    0.0000
   3680 C        1351.8845  379.8936   -0.2510 C.3     613        0    0.0000
   3681 H        1350.9263  379.8928    1.6950 H       613        0    0.0000
   3682 H        1350.4216  378.5693    0.6500 H       613        0    0.0000
   3683 H        1351.6697  379.5455   -1.2691 H       613        0    0.0000
   3684 H        1352.0796  380.9709   -0.3211 H       613        0    0.0000
   3685 C        1353.1803  379.1779    0.2649 C.3     614        0    0.0000
   3686 C        1354.4194  379.5599   -0.5525 C.3     614        0    0.0000
   3687 H        1353.3312  379.4370    1.3201 H       614        0    0.0000
   3688 H        1353.0239  378.0928    0.2262 H       614        0    0.0000
   3689 H        1354.2249  379.4120   -1.6219 H       614        0    0.0000
   3690 H        1354.6451  380.6250   -0.4176 H       614        0    0.0000
   3691 C        1355.6801  378.7208   -0.1475 C.3     615        0    0.0000
   3692 C        1356.8303  378.8806   -1.1478 C.3     615        0    0.0000
   3693 H        1356.0055  379.0320    0.8529 H       615        0    0.0000
   3694 H        1355.3923  377.6649   -0.0708 H       615        0    0.0000
   3695 H        1356.5109  378.5508   -2.1441 H       615        0    0.0000
   3696 H        1357.1046  379.9389   -1.2394 H       615        0    0.0000
   3697 C        1358.1006  378.0638   -0.7280 C.3     616        0    0.0000
   3698 C        1359.3490  378.4889   -1.5091 C.3     616        0    0.0000
   3699 H        1358.2668  378.1967    0.3482 H       616        0    0.0000
   3700 H        1357.9030  376.9964   -0.8868 H       616        0    0.0000
   3701 H        1359.1350  378.4962   -2.5851 H       616        0    0.0000
   3702 H        1359.6318  379.5134   -1.2372 H       616        0    0.0000
   3703 C        1360.5682  377.5404   -1.2426 C.3     617        0    0.0000
   3704 C        1361.7125  377.7724   -2.2355 C.3     617        0    0.0000
   3705 H        1360.9222  377.6995   -0.2166 H       617        0    0.0000
   3706 H        1360.2257  376.4996   -1.3000 H       617        0    0.0000
   3707 H        1361.3308  377.7405   -3.2635 H       617        0    0.0000
   3708 H        1362.1405  378.7719   -2.0893 H       617        0    0.0000
   3709 C        1362.8533  376.7075   -2.0868 C.3     618        0    0.0000
   3710 C        1364.1766  377.1852   -2.6949 C.3     618        0    0.0000
   3711 H        1362.9888  376.4808   -1.0220 H       618        0    0.0000
   3712 H        1362.5322  375.7758   -2.5689 H       618        0    0.0000
   3713 H        1364.0359  377.4335   -3.7542 H       618        0    0.0000
   3714 H        1364.5092  378.1044   -2.1972 H       618        0    0.0000
   3715 C        1365.3088  376.1075   -2.5749 C.3     619        0    0.0000
   3716 C        1366.5388  376.4609   -3.4182 C.3     619        0    0.0000
   3717 H        1365.5922  376.0083   -1.5197 H       619        0    0.0000
   3718 H        1364.9061  375.1356   -2.8858 H       619        0    0.0000
   3719 H        1366.2264  376.8280   -4.4037 H       619        0    0.0000
   3720 H        1367.1001  377.2744   -2.9424 H       619        0    0.0000
   3721 C        1367.4958  375.2350   -3.6160 C.3     620        0    0.0000
   3722 C        1368.9521  375.6633   -3.8281 C.3     620        0    0.0000
   3723 H        1367.4200  374.5820   -2.7376 H       620        0    0.0000
   3724 H        1367.1470  374.6490   -4.4753 H       620        0    0.0000
   3725 H        1369.0001  376.4892   -4.5485 H       620        0    0.0000
   3726 H        1369.3741  376.0403   -2.8882 H       620        0    0.0000
   3727 C        1369.8478  374.4864   -4.3480 C.3     621        0    0.0000
   3728 C        1371.2437  374.9604   -4.7677 C.3     621        0    0.0000
   3729 H        1369.9292  373.7287   -3.5588 H       621        0    0.0000
   3730 H        1369.3431  374.0058   -5.1953 H       621        0    0.0000
   3731 H        1371.1862  375.9704   -5.1920 H       621        0    0.0000
   3732 H        1371.8988  375.0242   -3.8900 H       621        0    0.0000
   3733 C        1371.9031  374.0060   -5.8221 C.3     622        0    0.0000
   3734 C        1373.4247  373.9224   -5.6583 C.3     622        0    0.0000
   3735 H        1371.4586  373.0079   -5.7224 H       622        0    0.0000
   3736 H        1371.6521  374.3636   -6.8284 H       622        0    0.0000
   3737 H        1373.6975  374.0584   -4.6045 H       622        0    0.0000
   3738 H        1373.7803  372.9264   -5.9499 H       622        0    0.0000
   3739 C        1374.1747  374.9981   -6.5173 C.3     623        0    0.0000
   3740 C        1375.6920  374.7820   -6.5231 C.3     623        0    0.0000
   3741 H        1373.7863  374.9656   -7.5427 H       623        0    0.0000
   3742 H        1373.9382  375.9939   -6.1222 H       623        0    0.0000
   3743 H        1375.9210  373.7175   -6.3887 H       623        0    0.0000
   3744 H        1376.1100  375.0740   -7.4944 H       623        0    0.0000
   3745 C        1376.4130  375.5999   -5.3966 C.3     624        0    0.0000
   3746 C        1377.7843  375.0148   -5.0410 C.3     624        0    0.0000
   3747 H        1376.5225  376.6394   -5.7295 H       624        0    0.0000
   3748 H        1375.7704  375.6198   -4.5076 H       624        0    0.0000
   3749 H        1378.4630  375.8150   -4.7208 H       624        0    0.0000
   3750 H        1377.6903  374.3238   -4.1943 H       624        0    0.0000
   3751 C        1378.4353  374.2520   -6.2459 C.3     625        0    0.0000
   3752 C        1379.5098  373.2579   -5.7917 C.3     625        0    0.0000
   3753 H        1377.6470  373.7271   -6.7996 H       625        0    0.0000
   3754 H        1378.8696  374.9860   -6.9360 H       625        0    0.0000
   3755 H        1380.4259  373.7943   -5.5152 H       625        0    0.0000
   3756 H        1379.1735  372.7250   -4.8935 H       625        0    0.0000
   3757 C        1379.8549  372.2073   -6.9028 C.3     626        0    0.0000
   3758 C        1381.3125  371.7395   -6.8273 C.3     626        0    0.0000
   3759 H        1379.1787  371.3494   -6.8006 H       626        0    0.0000
   3760 H        1379.6530  372.6523   -7.8851 H       626        0    0.0000
   3761 H        1381.6833  371.8287   -5.7987 H       626        0    0.0000
   3762 H        1381.3811  370.6783   -7.0961 H       626        0    0.0000
   3763 C        1382.2506  372.5627   -7.7758 C.3     627        0    0.0000
   3764 C        1383.5245  371.7938   -8.1434 C.3     627        0    0.0000
   3765 H        1381.6937  372.8242   -8.6841 H       627        0    0.0000
   3766 H        1382.5106  373.5077   -7.2828 H       627        0    0.0000
   3767 H        1384.2216  371.7937   -7.2962 H       627        0    0.0000
   3768 H        1383.2831  370.7444   -8.3529 H       627        0    0.0000
   3769 C        1384.2477  372.4051   -9.3926 C.3     628        0    0.0000
   3770 C        1385.4453  371.5605   -9.8416 C.3     628        0    0.0000
   3771 H        1383.5231  372.4955  -10.2116 H       628        0    0.0000
   3772 H        1384.5757  373.4231   -9.1485 H       628        0    0.0000
   3773 H        1385.0969  370.6687  -10.3772 H       628        0    0.0000
   3774 H        1386.0637  372.1297  -10.5466 H       628        0    0.0000
   3775 C        1386.3392  371.1088   -8.6356 C.3     629        0    0.0000
   3776 C        1387.5284  370.2516   -9.0832 C.3     629        0    0.0000
   3777 H        1386.6967  372.0010   -8.1067 H       629        0    0.0000
   3778 H        1385.7183  370.5490   -7.9254 H       629        0    0.0000
   3779 H        1387.1733  369.2885   -9.4705 H       629        0    0.0000
   3780 H        1388.0596  370.7457   -9.9062 H       629        0    0.0000
   3781 C        1388.5408  369.9847   -7.9165 C.3     630        0    0.0000
   3782 C        1389.7688  369.1947   -8.3820 C.3     630        0    0.0000
   3783 H        1388.8517  370.9470   -7.4910 H       630        0    0.0000
   3784 H        1388.0234  369.4395   -7.1173 H       630        0    0.0000
   3785 H        1390.6724  369.8080   -8.2773 H       630        0    0.0000
   3786 H        1389.9117  368.3124   -7.7456 H       630        0    0.0000
   3787 C        1389.6448  368.7276   -9.8731 C.3     631        0    0.0000
   3788 C        1390.9531  368.1333  -10.4064 C.3     631        0    0.0000
   3789 H        1388.8384  367.9875   -9.9460 H       631        0    0.0000
   3790 H        1389.3428  369.5843  -10.4881 H       631        0    0.0000
   3791 H        1391.7423  368.8951  -10.4001 H       631        0    0.0000
   3792 H        1391.2926  367.3222   -9.7503 H       631        0    0.0000
   3793 C        1390.8016  367.5747  -11.8633 C.3     632        0    0.0000
   3794 C        1392.0154  366.7449  -12.2964 C.3     632        0    0.0000
   3795 H        1389.8911  366.9648  -11.9151 H       632        0    0.0000
   3796 H        1390.6565  368.4166  -12.5515 H       632        0    0.0000
   3797 H        1392.5718  366.4040  -11.4147 H       632        0    0.0000
   3798 H        1391.6847  365.8441  -12.8281 H       632        0    0.0000
   3799 C        1392.9861  367.5524  -13.2255 C.3     633        0    0.0000
   3800 C        1394.4213  367.5735  -12.6879 C.3     633        0    0.0000
   3801 H        1392.9666  367.1083  -14.2284 H       633        0    0.0000
   3802 H        1392.6074  368.5771  -13.3273 H       633        0    0.0000
   3803 H        1395.0248  368.2931  -13.2551 H       633        0    0.0000
   3804 H        1394.4269  367.9110  -11.6442 H       633        0    0.0000
   3805 C        1395.1063  366.1658  -12.7677 C.3     634        0    0.0000
   3806 C        1396.6230  366.2454  -12.5617 C.3     634        0    0.0000
   3807 H        1394.6578  365.5109  -12.0105 H       634        0    0.0000
   3808 H        1394.8823  365.7185  -13.7439 H       634        0    0.0000
   3809 H        1397.1002  366.6851  -13.4462 H       634        0    0.0000
   3810 H        1396.8538  366.9071  -11.7176 H       634        0    0.0000
   3811 C        1397.2604  364.8391  -12.2903 C.3     635        0    0.0000
   3812 C        1398.7352  364.7803  -12.7032 C.3     635        0    0.0000
   3813 H        1397.1589  364.6049  -11.2234 H       635        0    0.0000
   3814 H        1396.6865  364.0796  -12.8356 H       635        0    0.0000
   3815 H        1398.8829  365.3179  -13.6480 H       635        0    0.0000
   3816 H        1399.3563  365.2852  -11.9530 H       635        0    0.0000
   3817 C        1399.2461  363.3081  -12.8743 C.3     636        0    0.0000
   3818 C        1400.6750  363.2494  -13.4257 C.3     636        0    0.0000
   3819 H        1399.1969  362.8016  -11.9023 H       636        0    0.0000
   3820 H        1398.5623  362.7722  -13.5438 H       636        0    0.0000
   3821 H        1400.7612  362.4403  -14.1616 H       636        0    0.0000
   3822 H        1400.9135  364.1815  -13.9529 H       636        0    0.0000
   3823 C        1401.7385  363.0212  -12.2967 C.3     637        0    0.0000
   3824 C        1403.1744  363.1055  -12.8259 C.3     637        0    0.0000
   3825 H        1401.5836  363.7687  -11.5088 H       637        0    0.0000
   3826 H        1401.5632  362.0398  -11.8390 H       637        0    0.0000
   3827 H        1403.2714  363.9515  -13.5176 H       637        0    0.0000
   3828 H        1403.8699  363.2937  -11.9986 H       637        0    0.0000
   3829 C        1403.6125  361.7950  -13.5661 C.3     638        0    0.0000
   3830 C        1405.0411  361.8866  -14.1133 C.3     638        0    0.0000
   3831 H        1403.5298  360.9510  -12.8699 H       638        0    0.0000
   3832 H        1402.9083  361.5986  -14.3840 H       638        0    0.0000
   3833 H        1405.2054  362.8689  -14.5736 H       638        0    0.0000
   3834 H        1405.7644  361.7982  -13.2932 H       638        0    0.0000
   3835 C        1405.3433  360.7740  -15.1756 C.3     639        0    0.0000
   3836 C        1406.6721  361.0099  -15.9020 C.3     639        0    0.0000
   3837 H        1405.3574  359.7993  -14.6725 H       639        0    0.0000
   3838 H        1404.5193  360.7432  -15.8993 H       639        0    0.0000
   3839 H        1406.4929  361.5131  -16.8602 H       639        0    0.0000
   3840 H        1407.3108  361.6773  -15.3103 H       639        0    0.0000
   3841 C        1407.4480  359.6744  -16.1698 C.3     640        0    0.0000
   3842 C        1408.8662  359.9220  -16.6958 C.3     640        0    0.0000
   3843 H        1407.4878  359.0958  -15.2386 H       640        0    0.0000
   3844 H        1406.8792  359.0734  -16.8901 H       640        0    0.0000
   3845 H        1409.0929  359.2222  -17.5096 H       640        0    0.0000
   3846 H        1408.9393  360.9315  -17.1187 H       640        0    0.0000
   3847 C        1409.9513  359.7632  -15.5757 C.3     641        0    0.0000
   3848 C        1411.3201  359.3730  -16.1441 C.3     641        0    0.0000
   3849 H        1410.0291  360.7073  -15.0223 H       641        0    0.0000
   3850 H        1409.6115  359.0051  -14.8591 H       641        0    0.0000
   3851 H        1411.7938  358.6211  -15.5009 H       641        0    0.0000
   3852 H        1411.1995  358.9115  -17.1319 H       641        0    0.0000
   3853 C        1412.2817  360.6039  -16.2755 C.3     642        0    0.0000
   3854 C        1413.5880  360.2465  -16.9932 C.3     642        0    0.0000
   3855 H        1411.7612  361.4031  -16.8175 H       642        0    0.0000
   3856 H        1412.4978  360.9925  -15.2725 H       642        0    0.0000
   3857 H        1413.6156  360.7203  -17.9822 H       642        0    0.0000
   3858 H        1414.4451  360.6388  -16.4319 H       642        0    0.0000
   3859 C        1413.7649  358.6989  -17.1692 C.3     643        0    0.0000
   3860 C        1414.7819  358.3510  -18.2620 C.3     643        0    0.0000
   3861 H        1414.0802  358.2679  -16.2109 H       643        0    0.0000
   3862 H        1412.7898  358.2564  -17.4081 H       643        0    0.0000
   3863 H        1414.5631  358.9198  -19.1742 H       643        0    0.0000
   3864 H        1415.7905  358.6419  -17.9435 H       643        0    0.0000
   3865 C        1414.7825  356.8219  -18.6078 C.3     644        0    0.0000
   3866 C        1416.1920  356.2910  -18.8915 C.3     644        0    0.0000
   3867 H        1414.3339  356.2702  -17.7723 H       644        0    0.0000
   3868 H        1414.1356  356.6560  -19.4782 H       644        0    0.0000
   3869 H        1416.9274  356.8336  -18.2846 H       644        0    0.0000
   3870 H        1416.2617  355.2353  -18.6017 H       644        0    0.0000
   3871 C        1416.5850  356.4273  -20.4030 C.3     645        0    0.0000
   3872 C        1418.0983  356.3210  -20.6217 C.3     645        0    0.0000
   3873 H        1416.0667  355.6475  -20.9747 H       645        0    0.0000
   3874 H        1416.2173  357.3904  -20.7785 H       645        0    0.0000
   3875 H        1418.4182  357.0352  -21.3906 H       645        0    0.0000
   3876 H        1418.6311  356.5895  -19.7010 H       645        0    0.0000
   3877 C        1418.5359  354.8800  -21.0568 C.3     646        0    0.0000
   3878 C        1419.9939  354.5805  -20.6912 C.3     646        0    0.0000
   3879 H        1417.8707  354.1494  -20.5800 H       646        0    0.0000
   3880 H        1418.3910  354.7784  -22.1395 H       646        0    0.0000
   3881 H        1420.5424  355.5174  -20.5339 H       646        0    0.0000
   3882 H        1420.0382  354.0269  -19.7451 H       646        0    0.0000
   3883 C        1420.7250  353.7468  -21.7993 C.3     647        0    0.0000
   3884 C        1422.1709  353.4128  -21.4158 C.3     647        0    0.0000
   3885 H        1420.1602  352.8234  -21.9775 H       647        0    0.0000
   3886 H        1420.7063  354.3138  -22.7383 H       647        0    0.0000
   3887 H        1422.7456  354.3364  -21.2748 H       647        0    0.0000
   3888 H        1422.1921  352.8792  -20.4575 H       647        0    0.0000
   3889 C        1422.8850  352.5336  -22.4995 C.3     648        0    0.0000
   3890 C        1424.2537  352.0293  -22.0287 C.3     648        0    0.0000
   3891 H        1422.2368  351.6846  -22.7493 H       648        0    0.0000
   3892 H        1422.9972  353.1248  -23.4168 H       648        0    0.0000
   3893 H        1424.7328  352.7820  -21.3905 H       648        0    0.0000
   3894 H        1424.1318  351.1278  -21.4154 H       648        0    0.0000
   3895 C        1425.2097  351.6999  -23.2266 C.3     649        0    0.0000
   3896 C        1426.5731  351.1814  -22.7561 C.3     649        0    0.0000
   3897 H        1424.7260  350.9551  -23.8706 H       649        0    0.0000
   3898 H        1425.3402  352.6043  -23.8338 H       649        0    0.0000
   3899 H        1427.0203  351.8889  -22.0467 H       649        0    0.0000
   3900 H        1426.4498  350.2326  -22.2193 H       649        0    0.0000
   3901 C        1427.5688  350.9626  -23.9469 C.3     650        0    0.0000
   3902 C        1428.7089  350.0051  -23.5823 C.3     650        0    0.0000
   3903 H        1427.0110  350.5728  -24.8071 H       650        0    0.0000
   3904 H        1427.9767  351.9349  -24.2500 H       650        0    0.0000
   3905 H        1429.2839  350.4085  -22.7397 H       650        0    0.0000
   3906 H        1428.3002  349.0419  -23.2522 H       650        0    0.0000
   3907 C        1429.6825  349.7553  -24.7852 C.3     651        0    0.0000
   3908 C        1430.8787  348.8813  -24.3925 C.3     651        0    0.0000
   3909 H        1429.1223  349.2816  -25.6010 H       651        0    0.0000
   3910 H        1430.0323  350.7236  -25.1640 H       651        0    0.0000
   3911 H        1431.2891  349.2153  -23.4314 H       651        0    0.0000
   3912 H        1430.5557  347.8422  -24.2530 H       651        0    0.0000
   3913 C        1432.0187  348.9161  -25.4681 C.3     652        0    0.0000
   3914 C        1432.9529  347.7055  -25.3637 C.3     652        0    0.0000
   3915 H        1431.5630  348.9546  -26.4652 H       652        0    0.0000
   3916 H        1432.5908  349.8442  -25.3470 H       652        0    0.0000
   3917 H        1433.4301  347.6827  -24.3761 H       652        0    0.0000
   3918 H        1432.3767  346.7766  -25.4566 H       652        0    0.0000
   3919 C        1434.0692  347.7198  -26.4640 C.3     653        0    0.0000
   3920 C        1435.0491  346.5510  -26.3126 C.3     653        0    0.0000
   3921 H        1433.5927  347.6857  -27.4516 H       653        0    0.0000
   3922 H        1434.6091  348.6731  -26.4076 H       653        0    0.0000
   3923 H        1435.2864  346.3940  -25.2531 H       653        0    0.0000
   3924 H        1434.5868  345.6236  -26.6727 H       653        0    0.0000
   3925 C        1436.3838  346.7890  -27.0996 C.3     654        0    0.0000
   3926 C        1437.2163  345.5088  -27.2316 C.3     654        0    0.0000
   3927 H        1436.1423  347.1849  -28.0939 H       654        0    0.0000
   3928 H        1436.9647  347.5640  -26.5845 H       654        0    0.0000
   3929 H        1437.5813  345.1941  -26.2461 H       654        0    0.0000
   3930 H        1436.5914  344.6914  -27.6121 H       654        0    0.0000
   3931 C        1438.4435  345.6945  -28.1894 C.3     655        0    0.0000
   3932 C        1439.3856  344.4858  -28.1672 C.3     655        0    0.0000
   3933 H        1438.0742  345.8649  -29.2082 H       655        0    0.0000
   3934 H        1438.9873  346.6008  -27.8957 H       655        0    0.0000
   3935 H        1439.5398  344.1479  -27.1348 H       655        0    0.0000
   3936 H        1438.9332  343.6462  -28.7092 H       655        0    0.0000
   3937 C        1440.7802  344.8077  -28.8070 C.3     656        0    0.0000
   3938 C        1441.6212  343.5461  -29.0313 C.3     656        0    0.0000
   3939 H        1440.6205  345.3276  -29.7596 H       656        0    0.0000
   3940 H        1441.3165  345.5060  -28.1527 H       656        0    0.0000
   3941 H        1442.6732  343.8174  -29.1828 H       656        0    0.0000
   3942 H        1441.5857  342.9070  -28.1404 H       656        0    0.0000
   3943 C        1441.1302  342.7170  -30.2678 C.3     657        0    0.0000
   3944 C        1442.0605  341.5410  -30.5850 C.3     657        0    0.0000
   3945 H        1440.1157  342.3507  -30.0677 H       657        0    0.0000
   3946 H        1441.0587  343.3846  -31.1355 H       657        0    0.0000
   3947 H        1442.0439  341.3279  -31.6609 H       657        0    0.0000
   3948 H        1443.0957  341.8011  -30.3312 H       657        0    0.0000
   3949 C        1441.6609  340.2404  -29.8063 C.3     658        0    0.0000
   3950 C        1442.8799  339.5078  -29.2349 C.3     658        0    0.0000
   3951 H        1440.9712  340.5106  -28.9970 H       658        0    0.0000
   3952 H        1441.1078  339.5784  -30.4839 H       658        0    0.0000
   3953 H        1443.6708  340.2275  -28.9897 H       658        0    0.0000
   3954 H        1442.6110  339.0041  -28.2980 H       658        0    0.0000
   3955 C        1443.4558  338.4448  -30.2327 C.3     659        0    0.0000
   3956 C        1444.9486  338.6561  -30.5087 C.3     659        0    0.0000
   3957 H        1443.2881  337.4431  -29.8180 H       659        0    0.0000
   3958 H        1442.8889  338.4965  -31.1706 H       659        0    0.0000
   3959 H        1445.4482  339.0321  -29.6072 H       659        0    0.0000
   3960 H        1445.4244  337.6993  -30.7566 H       659        0    0.0000
   3961 C        1445.1990  339.6644  -31.6826 C.3     660        0    0.0000
   3962 C        1446.6821  340.0183  -31.8381 C.3     660        0    0.0000
   3963 H        1444.8175  339.2256  -32.6130 H       660        0    0.0000
   3964 H        1444.6125  340.5732  -31.4994 H       660        0    0.0000
   3965 H        1446.7931  341.0890  -32.0491 H       660        0    0.0000
   3966 H        1447.2152  339.8254  -30.8989 H       660        0    0.0000
   3967 C        1447.3702  339.2027  -32.9865 C.3     661        0    0.0000
   3968 C        1448.6188  338.4573  -32.5019 C.3     661        0    0.0000
   3969 H        1446.6440  338.4915  -33.3991 H       661        0    0.0000
   3970 H        1447.6345  339.8905  -33.7991 H       661        0    0.0000
   3971 H        1449.5012  339.1026  -32.5929 H       661        0    0.0000
   3972 H        1448.5189  338.2083  -31.4380 H       661        0    0.0000
   3973 C        1448.8728  337.1372  -33.3082 C.3     662        0    0.0000
   3974 C        1450.2632  336.5507  -33.0394 C.3     662        0    0.0000
   3975 H        1448.0986  336.4064  -33.0433 H       662        0    0.0000
   3976 H        1448.7539  337.3479  -34.3782 H       662        0    0.0000
   3977 H        1450.9404  337.3366  -32.6830 H       662        0    0.0000
   3978 H        1450.2063  335.7986  -32.2428 H       662        0    0.0000
   3979 C        1450.8855  335.8880  -34.3165 C.3     663        0    0.0000
   3980 C        1451.9325  334.8245  -33.9675 C.3     663        0    0.0000
   3981 H        1450.0793  335.4413  -34.9116 H       663        0    0.0000
   3982 H        1451.3378  336.6718  -34.9369 H       663        0    0.0000
   3983 H        1451.8224  334.5177  -32.9201 H       663        0    0.0000
   3984 H        1451.7738  333.9263  -34.5772 H       663        0    0.0000
   3985 C        1453.3970  335.3359  -34.1932 C.3     664        0    0.0000
   3986 C        1454.3391  334.2166  -34.6501 C.3     664        0    0.0000
   3987 H        1453.3796  336.1407  -34.9386 H       664        0    0.0000
   3988 H        1453.7646  335.7791  -33.2594 H       664        0    0.0000
   3989 H        1454.6085  333.5805  -33.7979 H       664        0    0.0000
   3990 H        1453.8313  333.5708  -35.3771 H       664        0    0.0000
   3991 C        1455.6525  334.7737  -35.2999 C.3     665        0    0.0000
   3992 C        1456.5219  333.6618  -35.8972 C.3     665        0    0.0000
   3993 H        1455.3823  335.4988  -36.0776 H       665        0    0.0000
   3994 H        1456.2177  335.3248  -34.5381 H       665        0    0.0000
   3995 H        1456.0858  333.3086  -36.8398 H       665        0    0.0000
   3996 H        1457.5187  334.0519  -36.1378 H       665        0    0.0000
   3997 C        1456.6780  332.4424  -34.9245 C.3     666        0    0.0000
   3998 C        1457.5822  331.3489  -35.5043 C.3     666        0    0.0000
   3999 H        1457.0850  332.8005  -33.9708 H       666        0    0.0000
   4000 H        1455.6835  332.0326  -34.7084 H       666        0    0.0000
   4001 H        1457.1118  330.9017  -36.3887 H       666        0    0.0000
   4002 H        1458.5319  331.7843  -35.8386 H       666        0    0.0000
   4003 C        1457.8845  330.2150  -34.4648 C.3     667        0    0.0000
   4004 C        1458.5922  329.0149  -35.1038 C.3     667        0    0.0000
   4005 H        1458.5020  330.6300  -33.6585 H       667        0    0.0000
   4006 H        1456.9409  329.8948  -34.0062 H       667        0    0.0000
   4007 H        1458.9602  328.3365  -34.3243 H       667        0    0.0000
   4008 H        1457.8831  328.4404  -35.7125 H       667        0    0.0000
   4009 C        1459.7981  329.4482  -36.0070 C.3     668        0    0.0000
   4010 C        1460.1259  328.4030  -37.0789 C.3     668        0    0.0000
   4011 H        1459.5588  330.4092  -36.4793 H       668        0    0.0000
   4012 H        1460.6738  329.6200  -35.3691 H       668        0    0.0000
   4013 H        1460.5082  327.4887  -36.6084 H       668        0    0.0000
   4014 H        1459.2144  328.1208  -37.6205 H       668        0    0.0000
   4015 C        1461.1860  328.9219  -38.1103 C.3     669        0    0.0000
   4016 C        1462.3046  327.9032  -38.3560 C.3     669        0    0.0000
   4017 H        1460.6768  329.1560  -39.0533 H       669        0    0.0000
   4018 H        1461.6096  329.8632  -37.7390 H       669        0    0.0000
   4019 H        1463.1252  328.0676  -37.6467 H       669        0    0.0000
   4020 H        1461.9331  326.8864  -38.1777 H       669        0    0.0000
   4021 C        1462.8730  327.9850  -39.8147 C.3     670        0    0.0000
   4022 C        1463.8479  326.8431  -40.1230 C.3     670        0    0.0000
   4023 H        1462.0350  327.9657  -40.5222 H       670        0    0.0000
   4024 H        1463.3737  328.9525  -39.9453 H       670        0    0.0000
   4025 H        1463.7114  326.0271  -39.4027 H       670        0    0.0000
   4026 H        1463.6366  326.4261  -41.1155 H       670        0    0.0000
   4027 C        1465.3435  327.3109  -40.0793 C.3     671        0    0.0000
   4028 C        1466.3159  326.1827  -40.4411 C.3     671        0    0.0000
   4029 H        1465.4708  328.1533  -40.7705 H       671        0    0.0000
   4030 H        1465.5658  327.6914  -39.0746 H       671        0    0.0000
   4031 H        1465.7909  325.3987  -41.0003 H       671        0    0.0000
   4032 H        1467.1062  326.5641  -41.0995 H       671        0    0.0000
   4033 C        1466.9799  325.5415  -39.1739 C.3     672        0    0.0000
   4034 C        1467.7627  324.2674  -39.5102 C.3     672        0    0.0000
   4035 H        1467.6453  326.2808  -38.7110 H       672        0    0.0000
   4036 H        1466.1967  325.3187  -38.4388 H       672        0    0.0000
   4037 H        1468.7263  324.2686  -38.9859 H       672        0    0.0000
   4038 H        1467.2139  323.3849  -39.1588 H       672        0    0.0000
   4039 C        1468.0248  324.1200  -41.0487 C.3     673        0    0.0000
   4040 C        1468.7311  322.8042  -41.3941 C.3     673        0    0.0000
   4041 H        1467.0660  324.1826  -41.5782 H       673        0    0.0000
   4042 H        1468.6283  324.9711  -41.3878 H       673        0    0.0000
   4043 H        1469.2306  322.4008  -40.5049 H       673        0    0.0000
   4044 H        1467.9954  322.0541  -41.7098 H       673        0    0.0000
   4045 C        1469.7930  322.9814  -42.5337 C.3     674        0    0.0000
   4046 C        1470.8855  321.9077  -42.4816 C.3     674        0    0.0000
   4047 H        1469.2802  322.9496  -43.5030 H       674        0    0.0000
   4048 H        1470.2415  323.9789  -42.4472 H       674        0    0.0000
   4049 H        1471.1320  321.6721  -41.4389 H       674        0    0.0000
   4050 H        1470.5215  320.9785  -42.9371 H       674        0    0.0000
   4051 C        1472.1934  322.3546  -43.2213 C.3     675        0    0.0000
   4052 C        1473.1565  321.1856  -43.4557 C.3     675        0    0.0000
   4053 H        1471.9186  322.8134  -44.1792 H       675        0    0.0000
   4054 H        1472.6862  323.1349  -42.6280 H       675        0    0.0000
   4055 H        1474.0529  321.5364  -43.9819 H       675        0    0.0000
   4056 H        1473.4946  320.7783  -42.4947 H       675        0    0.0000
   4057 C        1472.4994  320.0325  -44.2900 C.3     676        0    0.0000
   4058 C        1473.4733  318.8788  -44.5538 C.3     676        0    0.0000
   4059 H        1471.6174  319.6646  -43.7513 H       676        0    0.0000
   4060 H        1472.1385  320.4450  -45.2405 H       676        0    0.0000
   4061 H        1473.7523  318.3985  -43.6079 H       676        0    0.0000
   4062 H        1472.9877  318.1094  -45.1668 H       676        0    0.0000
   4063 C        1474.7769  319.3565  -45.2819 C.3     677        0    0.0000
   4064 C        1475.8219  318.2409  -45.3938 C.3     677        0    0.0000
   4065 H        1474.5099  319.7232  -46.2808 H       677        0    0.0000
   4066 H        1475.1951  320.2101  -44.7343 H       677        0    0.0000
   4067 H        1476.2638  318.0393  -44.4100 H       677        0    0.0000
   4068 H        1475.3439  317.3092  -45.7211 H       677        0    0.0000
   4069 C        1476.9695  318.6005  -46.3991 C.3     678        0    0.0000
   4070 C        1477.8584  317.3943  -46.7215 C.3     678        0    0.0000
   4071 H        1476.5222  318.9948  -47.3200 H       678        0    0.0000
   4072 H        1477.5740  319.4095  -45.9709 H       678        0    0.0000
   4073 H        1477.2853  316.6429  -47.2788 H       678        0    0.0000
   4074 H        1478.6888  317.7014  -47.3694 H       678        0    0.0000
   4075 C        1478.4452  316.7266  -45.4302 C.3     679        0    0.0000
   4076 C        1479.0458  315.3450  -45.7122 C.3     679        0    0.0000
   4077 H        1479.2094  317.3894  -45.0054 H       679        0    0.0000
   4078 H        1477.6479  316.6444  -44.6810 H       679        0    0.0000
   4079 H        1479.1910  314.7990  -44.7719 H       679        0    0.0000
   4080 H        1478.3517  314.7497  -46.3182 H       679        0    0.0000
   4081 C        1480.4199  315.4362  -46.4610 C.3     680        0    0.0000
   4082 C        1481.1206  314.0764  -46.5571 C.3     680        0    0.0000
   4083 H        1480.2490  315.8431  -47.4654 H       680        0    0.0000
   4084 H        1481.0620  316.1538  -45.9354 H       680        0    0.0000
   4085 H        1481.8600  313.9766  -45.7529 H       680        0    0.0000
   4086 H        1480.3926  313.2676  -46.4177 H       680        0    0.0000
   4087 C        1481.8416  313.8755  -47.9344 C.3     681        0    0.0000
   4088 C        1482.6510  312.5747  -47.9821 C.3     681        0    0.0000
   4089 H        1481.0881  313.8790  -48.7318 H       681        0    0.0000
   4090 H        1482.4988  314.7344  -48.1181 H       681        0    0.0000
   4091 H        1482.9008  312.2497  -46.9645 H       681        0    0.0000
   4092 H        1482.0498  311.7739  -48.4301 H       681        0    0.0000
   4093 C        1483.9775  312.7302  -48.8028 C.3     682        0    0.0000
   4094 C        1484.7247  311.4008  -48.9565 C.3     682        0    0.0000
   4095 H        1483.7361  313.1422  -49.7904 H       682        0    0.0000
   4096 H        1484.6187  313.4664  -48.3024 H       682        0    0.0000
   4097 H        1485.8007  311.5549  -48.8077 H       682        0    0.0000
   4098 H        1484.3979  310.6941  -48.1837 H       682        0    0.0000
   4099 C        1484.4973  310.7508  -50.3646 C.3     683        0    0.0000
   4100 C        1485.6105  309.7647  -50.7358 C.3     683        0    0.0000
   4101 H        1483.5265  310.2400  -50.3656 H       683        0    0.0000
   4102 H        1484.4347  311.5477  -51.1161 H       683        0    0.0000
   4103 H        1485.8373  309.8391  -51.8065 H       683        0    0.0000
   4104 H        1486.5330  310.0197  -50.1997 H       683        0    0.0000
   4105 C        1485.2260  308.2818  -50.4025 C.3     684        0    0.0000
   4106 C        1486.3951  307.5019  -49.7912 C.3     684        0    0.0000
   4107 H        1484.3735  308.2844  -49.7119 H       684        0    0.0000
   4108 H        1484.8851  307.7897  -51.3219 H       684        0    0.0000
   4109 H        1487.0369  308.1779  -49.2130 H       684        0    0.0000
   4110 H        1486.0183  306.7478  -49.0891 H       684        0    0.0000
   4111 C        1487.2666  306.7869  -50.8808 C.3     685        0    0.0000
   4112 C        1488.7349  306.6603  -50.4592 C.3     685        0    0.0000
   4113 H        1486.8442  305.7935  -51.0756 H       685        0    0.0000
   4114 H        1487.1920  307.3506  -51.8192 H       685        0    0.0000
   4115 H        1489.2136  307.6473  -50.4632 H       685        0    0.0000
   4116 H        1488.7996  306.2828  -49.4312 H       685        0    0.0000
   4117 C        1489.5430  305.7027  -51.4012 C.3     686        0    0.0000
   4118 C        1491.0576  305.8558  -51.2240 C.3     686        0    0.0000
   4119 H        1489.2428  304.6679  -51.1951 H       686        0    0.0000
   4120 H        1489.2629  305.9107  -52.4413 H       686        0    0.0000
   4121 H        1491.4132  306.7371  -51.7722 H       686        0    0.0000
   4122 H        1491.2976  306.0242  -50.1669 H       686        0    0.0000
   4123 C        1491.8447  304.5966  -51.7264 C.3     687        0    0.0000
   4124 C        1492.8802  304.9489  -52.8001 C.3     687        0    0.0000
   4125 H        1492.3384  304.1229  -50.8688 H       687        0    0.0000
   4126 H        1491.1279  303.8655  -52.1206 H       687        0    0.0000
   4127 H        1492.3909  305.4503  -53.6444 H       687        0    0.0000
   4128 H        1493.6147  305.6566  -52.3963 H       687        0    0.0000
   4129 C        1493.6373  303.6840  -53.3332 C.3     688        0    0.0000
   4130 C        1495.0460  304.0191  -53.8356 C.3     688        0    0.0000
   4131 H        1493.6918  302.9395  -52.5294 H       688        0    0.0000
   4132 H        1493.0472  303.2332  -54.1409 H       688        0    0.0000
   4133 H        1494.9863  304.6680  -54.7182 H       688        0    0.0000
   4134 H        1495.5952  304.5797  -53.0691 H       688        0    0.0000
   4135 C        1495.8652  302.7353  -54.2070 C.3     689        0    0.0000
   4136 C        1496.1006  302.6126  -55.7164 C.3     689        0    0.0000
   4137 H        1496.8257  302.7633  -53.6776 H       689        0    0.0000
   4138 H        1495.3274  301.8535  -53.8373 H       689        0    0.0000
   4139 H        1495.1407  302.5287  -56.2412 H       689        0    0.0000
   4140 H        1496.5885  303.5190  -56.0959 H       689        0    0.0000
   4141 C        1496.9862  301.3715  -56.0809 C.3     690        0    0.0000
   4142 C        1496.1964  300.2958  -56.8347 C.3     690        0    0.0000
   4143 H        1497.8354  301.7091  -56.6876 H       690        0    0.0000
   4144 H        1497.4050  300.9528  -55.1575 H       690        0    0.0000
   4145 H        1495.5837  299.7173  -56.1323 H       690        0    0.0000
   4146 H        1495.5037  300.7655  -57.5441 H       690        0    0.0000
   4147 C        1497.1320  299.3118  -57.6184 C.3     691        0    0.0000
   4148 C        1497.9307  298.3992  -56.6811 C.3     691        0    0.0000
   4149 H        1496.5192  298.7080  -58.2992 H       691        0    0.0000
   4150 H        1497.8152  299.8976  -58.2455 H       691        0    0.0000
   4151 H        1497.4460  298.3532  -55.6980 H       691        0    0.0000
   4152 H        1497.9435  297.3751  -57.0742 H       691        0    0.0000
   4153 C        1499.4086  298.8872  -56.4939 C.3     692        0    0.0000
   4154 C        1500.4072  297.7246  -56.4839 C.3     692        0    0.0000
   4155 H        1499.6547  299.5876  -57.3017 H       692        0    0.0000
   4156 H        1499.4785  299.4513  -55.5556 H       692        0    0.0000
   4157 H        1501.4138  298.0953  -56.2533 H       692        0    0.0000
   4158 H        1500.1455  297.0107  -55.6932 H       692        0    0.0000
   4159 C        1500.4501  296.9666  -57.8554 C.3     693        0    0.0000
   4160 C        1501.6147  295.9732  -57.9338 C.3     693        0    0.0000
   4161 H        1499.4977  296.4417  -57.9993 H       693        0    0.0000
   4162 H        1500.5291  297.7033  -58.6645 H       693        0    0.0000
   4163 H        1502.3829  296.2351  -57.1959 H       693        0    0.0000
   4164 H        1501.2661  294.9642  -57.6813 H       693        0    0.0000
   4165 C        1502.2720  295.9394  -59.3567 C.3     694        0    0.0000
   4166 C        1503.5831  295.1459  -59.3723 C.3     694        0    0.0000
   4167 H        1501.5583  295.5009  -60.0654 H       694        0    0.0000
   4168 H        1502.4517  296.9697  -59.6877 H       694        0    0.0000
   4169 H        1504.2836  295.5910  -60.0897 H       694        0    0.0000
   4170 H        1504.0652  295.1968  -58.3881 H       694        0    0.0000
   4171 C        1503.3621  293.6405  -59.7494 C.3     695        0    0.0000
   4172 C        1504.6034  292.7845  -59.4745 C.3     695        0    0.0000
   4173 H        1502.5062  293.2556  -59.1809 H       695        0    0.0000
   4174 H        1503.0894  293.5781  -60.8101 H       695        0    0.0000
   4175 H        1504.8197  292.7703  -58.3992 H       695        0    0.0000
   4176 H        1504.4171  291.7452  -59.7722 H       695        0    0.0000
   4177 C        1505.8680  293.3097  -60.2376 C.3     696        0    0.0000
   4178 C        1506.9299  292.2198  -60.4213 C.3     696        0    0.0000
   4179 H        1505.5553  293.6986  -61.2146 H       696        0    0.0000
   4180 H        1506.2900  294.1562  -59.6820 H       696        0    0.0000
   4181 H        1507.4465  292.0342  -59.4715 H       696        0    0.0000
   4182 H        1506.4531  291.2751  -60.7105 H       696        0    0.0000
   4183 C        1507.9927  292.6029  -61.5081 C.3     697        0    0.0000
   4184 C        1508.7529  291.3801  -62.0335 C.3     697        0    0.0000
   4185 H        1507.4843  293.1137  -62.3352 H       697        0    0.0000
   4186 H        1508.6958  293.3258  -61.0759 H       697        0    0.0000
   4187 H        1508.0724  290.7253  -62.5916 H       697        0    0.0000
   4188 H        1509.5334  291.6960  -62.7366 H       697        0    0.0000
   4189 C        1509.4172  290.5527  -60.8796 C.3     698        0    0.0000
   4190 C        1509.6329  289.0855  -61.2668 C.3     698        0    0.0000
   4191 H        1510.3759  291.0175  -60.6178 H       698        0    0.0000
   4192 H        1508.7820  290.6168  -59.9874 H       698        0    0.0000
   4193 H        1509.8088  288.4813  -60.3680 H       698        0    0.0000
   4194 H        1508.7295  288.6854  -61.7433 H       698        0    0.0000
   4195 C        1510.8442  288.9009  -62.2446 C.3     699        0    0.0000
   4196 C        1511.5674  287.5669  -62.0284 C.3     699        0    0.0000
   4197 H        1510.4788  288.9677  -63.2769 H       699        0    0.0000
   4198 H        1511.5431  289.7348  -62.1032 H       699        0    0.0000
   4199 H        1512.6533  287.7168  -62.0693 H       699        0    0.0000
   4200 H        1511.3409  287.1740  -61.0295 H       699        0    0.0000
   4201 C        1511.1649  286.4930  -63.0969 C.3     700        0    0.0000
   4202 C        1512.3594  285.6436  -63.5453 C.3     700        0    0.0000
   4203 H        1510.3832  285.8495  -62.6746 H       700        0    0.0000
   4204 H        1510.7206  287.0028  -63.9609 H       700        0    0.0000
   4205 H        1512.2700  285.4022  -64.6117 H       700        0    0.0000
   4206 H        1513.2904  286.2121  -63.4280 H       700        0    0.0000
   4207 C        1512.4772  284.3081  -62.7328 C.3     701        0    0.0000
   4208 C        1513.8784  283.6939  -62.8247 C.3     701        0    0.0000
   4209 H        1512.2222  284.5083  -61.6846 H       701        0    0.0000
   4210 H        1511.7299  283.5984  -63.1088 H       701        0    0.0000
   4211 H        1514.6354  284.4424  -62.5594 H       701        0    0.0000
   4212 H        1513.9781  282.8748  -62.1018 H       701        0    0.0000
   4213 C        1514.1930  283.1435  -64.2585 C.3     702        0    0.0000
   4214 C        1515.5256  282.3881  -64.3113 C.3     702        0    0.0000
   4215 H        1513.3740  282.4841  -64.5716 H       702        0    0.0000
   4216 H        1514.2084  283.9836  -64.9641 H       702        0    0.0000
   4217 H        1516.3458  283.0511  -64.0097 H       702        0    0.0000
   4218 H        1515.5144  281.5556  -63.5970 H       702        0    0.0000
   4219 C        1515.8320  281.8232  -65.7411 C.3     703        0    0.0000
   4220 C        1517.2700  281.3076  -65.8661 C.3     703        0    0.0000
   4221 H        1515.1224  281.0163  -65.9620 H       703        0    0.0000
   4222 H        1515.6503  282.6136  -66.4799 H       703        0    0.0000
   4223 H        1517.9791  282.1320  -65.7214 H       703        0    0.0000
   4224 H        1517.4757  280.5728  -65.0779 H       703        0    0.0000
   4225 C        1517.5441  280.6439  -67.2596 C.3     704        0    0.0000
   4226 C        1518.6000  279.5360  -67.1778 C.3     704        0    0.0000
   4227 H        1516.6023  280.2379  -67.6493 H       704        0    0.0000
   4228 H        1517.8676  281.4206  -67.9635 H       704        0    0.0000
   4229 H        1518.4838  278.9738  -66.2429 H       704        0    0.0000
   4230 H        1518.4574  278.8193  -67.9961 H       704        0    0.0000
   4231 C        1520.0605  280.1008  -67.2495 C.3     705        0    0.0000
   4232 C        1521.1144  279.0229  -66.9723 C.3     705        0    0.0000
   4233 H        1520.2220  280.5383  -68.2425 H       705        0    0.0000
   4234 H        1520.1594  280.9187  -66.5250 H       705        0    0.0000
   4235 H        1521.9834  279.4667  -66.4709 H       705        0    0.0000
   4236 H        1520.7084  278.2669  -66.2888 H       705        0    0.0000
   4237 C        1521.5961  278.3119  -68.2836 C.3     706        0    0.0000
   4238 C        1522.5088  277.1152  -67.9938 C.3     706        0    0.0000
   4239 H        1520.7168  277.9853  -68.8523 H       706        0    0.0000
   4240 H        1522.1223  279.0433  -68.9096 H       706        0    0.0000
   4241 H        1523.3386  277.4232  -67.3459 H       706        0    0.0000
   4242 H        1521.9535  276.3419  -67.4484 H       706        0    0.0000
   4243 C        1523.0972  276.4857  -69.3035 C.3     707        0    0.0000
   4244 C        1524.2407  275.5069  -69.0146 C.3     707        0    0.0000
   4245 H        1522.2906  275.9732  -69.8427 H       707        0    0.0000
   4246 H        1523.4493  277.2935  -69.9568 H       707        0    0.0000
   4247 H        1525.1849  276.0542  -68.9025 H       707        0    0.0000
   4248 H        1524.0619  274.9893  -68.0642 H       707        0    0.0000
   4249 C        1524.4082  274.4377  -70.1487 C.3     708        0    0.0000
   4250 C        1525.6001  273.5071  -69.8982 C.3     708        0    0.0000
   4251 H        1523.4832  273.8526  -70.2225 H       708        0    0.0000
   4252 H        1524.5306  274.9557  -71.1079 H       708        0    0.0000
   4253 H        1526.3098  273.9821  -69.2096 H       708        0    0.0000
   4254 H        1525.2607  272.5835  -69.4133 H       708        0    0.0000
   4255 C        1526.3523  273.1356  -71.2224 C.3     709        0    0.0000
   4256 C        1527.2162  271.8791  -71.0668 C.3     709        0    0.0000
   4257 H        1525.6130  272.9875  -72.0194 H       709        0    0.0000
   4258 H        1526.9760  273.9858  -71.5252 H       709        0    0.0000
   4259 H        1527.8035  271.9386  -70.1421 H       709        0    0.0000
   4260 H        1526.5771  270.9920  -70.9778 H       709        0    0.0000
   4261 C        1528.1949  271.6779  -72.2748 C.3     710        0    0.0000
   4262 C        1529.2439  270.5952  -71.9984 C.3     710        0    0.0000
   4263 H        1527.6091  271.4157  -73.1646 H       710        0    0.0000
   4264 H        1528.6886  272.6331  -72.4928 H       710        0    0.0000
   4265 H        1530.1913  270.8561  -72.4861 H       710        0    0.0000
   4266 H        1529.4492  270.5365  -70.9222 H       710        0    0.0000
   4267 C        1528.7876  269.1832  -72.5033 C.3     711        0    0.0000
   4268 C        1529.9059  268.1400  -72.4002 C.3     711        0    0.0000
   4269 H        1527.9180  268.8617  -71.9166 H       711        0    0.0000
   4270 H        1528.4503  269.2715  -73.5436 H       711        0    0.0000
   4271 H        1530.4226  268.2366  -71.4374 H       711        0    0.0000
   4272 H        1529.4812  267.1291  -72.4301 H       711        0    0.0000
   4273 C        1530.9576  268.2805  -73.5543 C.3     712        0    0.0000
   4274 C        1531.9539  267.1158  -73.5772 C.3     712        0    0.0000
   4275 H        1530.4259  268.3396  -74.5120 H       712        0    0.0000
   4276 H        1531.4923  269.2306  -73.4317 H       712        0    0.0000
   4277 H        1531.4779  266.2062  -73.1909 H       712        0    0.0000
   4278 H        1532.2557  266.8996  -74.6094 H       712        0    0.0000
   4279 C        1533.2369  267.4149  -72.7277 C.3     713        0    0.0000
   4280 C        1534.2048  266.2269  -72.6996 C.3     713        0    0.0000
   4281 H        1533.7379  268.2983  -73.1426 H       713        0    0.0000
   4282 H        1532.9320  267.6759  -71.7067 H       713        0    0.0000
   4283 H        1534.9735  266.3860  -71.9332 H       713        0    0.0000
   4284 H        1533.6682  265.3110  -72.4222 H       713        0    0.0000
   4285 C        1534.9087  266.0012  -74.0821 C.3     714        0    0.0000
   4286 C        1535.3177  264.5394  -74.2938 C.3     714        0    0.0000
   4287 H        1534.2290  266.3211  -74.8814 H       714        0    0.0000
   4288 H        1535.7909  266.6508  -74.1400 H       714        0    0.0000
   4289 H        1535.3749  264.0212  -73.3284 H       714        0    0.0000
   4290 H        1534.5563  264.0177  -74.8867 H       714        0    0.0000
   4291 C        1536.7009  264.4087  -75.0200 C.3     715        0    0.0000
   4292 C        1537.2399  262.9742  -74.9893 C.3     715        0    0.0000
   4293 H        1536.5886  264.7462  -76.0578 H       715        0    0.0000
   4294 H        1537.4166  265.0897  -74.5429 H       715        0    0.0000
   4295 H        1538.3152  262.9810  -74.7720 H       715        0    0.0000
   4296 H        1536.7588  262.4088  -74.1815 H       715        0    0.0000
   4297 C        1537.0027  262.2214  -76.3437 C.3     716        0    0.0000
   4298 C        1537.8169  260.9264  -76.4389 C.3     716        0    0.0000
   4299 H        1535.9326  262.0011  -76.4432 H       716        0    0.0000
   4300 H        1537.2644  262.8920  -77.1716 H       716        0    0.0000
   4301 H        1537.4971  260.2229  -75.6601 H       716        0    0.0000
   4302 H        1537.6316  260.4355  -77.4023 H       716        0    0.0000
   4303 C        1539.3567  261.1802  -76.2892 C.3     717        0    0.0000
   4304 C        1540.1897  259.9684  -76.7209 C.3     717        0    0.0000
   4305 H        1539.6302  262.0575  -76.8884 H       717        0    0.0000
   4306 H        1539.5735  261.4326  -75.2438 H       717        0    0.0000
   4307 H        1540.0349  259.7664  -77.7880 H       717        0    0.0000
   4308 H        1541.2583  260.1812  -76.5923 H       717        0    0.0000
   4309 C        1539.8298  258.6789  -75.9050 C.3     718        0    0.0000
   4310 C        1540.7722  257.5115  -76.2184 C.3     718        0    0.0000
   4311 H        1539.8676  258.9157  -74.8345 H       718        0    0.0000
   4312 H        1538.7937  258.3965  -76.1290 H       718        0    0.0000
   4313 H        1541.6522  257.8744  -76.7635 H       718        0    0.0000
   4314 H        1541.1406  257.0648  -75.2866 H       718        0    0.0000
   4315 C        1540.0739  256.3968  -77.0713 C.3     719        0    0.0000
   4316 C        1540.9904  255.8458  -78.1693 C.3     719        0    0.0000
   4317 H        1539.7579  255.5861  -76.4031 H       719        0    0.0000
   4318 H        1539.1610  256.8119  -77.5164 H       719        0    0.0000
   4319 H        1540.4037  255.2682  -78.8944 H       719        0    0.0000
   4320 H        1541.4514  256.6721  -78.7240 H       719        0    0.0000
   4321 C        1542.1243  254.9296  -77.5925 C.3     720        0    0.0000
   4322 C        1543.1050  254.4674  -78.6758 C.3     720        0    0.0000
   4323 H        1542.6604  255.4808  -76.8100 H       720        0    0.0000
   4324 H        1541.6637  254.0606  -77.1064 H       720        0    0.0000
   4325 H        1542.6171  253.7442  -79.3410 H       720        0    0.0000
   4326 H        1543.4039  255.3183  -79.3004 H       720        0    0.0000
   4327 C        1544.3921  253.8086  -78.0700 C.3     721        0    0.0000
   4328 C        1545.1978  253.0353  -79.1197 C.3     721        0    0.0000
   4329 H        1545.0135  254.5936  -77.6219 H       721        0    0.0000
   4330 H        1544.0953  253.1377  -77.2543 H       721        0    0.0000
   4331 H        1544.5580  252.2937  -79.6138 H       721        0    0.0000
   4332 H        1545.5499  253.7189  -79.9022 H       721        0    0.0000
   4333 C        1546.4344  252.3006  -78.4966 C.3     722        0    0.0000
   4334 C        1547.0846  251.3213  -79.4802 C.3     722        0    0.0000
   4335 H        1547.1665  253.0515  -78.1742 H       722        0    0.0000
   4336 H        1546.1112  251.7678  -77.5936 H       722        0    0.0000
   4337 H        1546.3267  250.6438  -79.8927 H       722        0    0.0000
   4338 H        1547.5126  251.8691  -80.3288 H       722        0    0.0000
   4339 C        1548.2144  250.4669  -78.8086 C.3     723        0    0.0000
   4340 C        1548.9025  249.5277  -79.8052 C.3     723        0    0.0000
   4341 H        1548.9512  251.1449  -78.3603 H       723        0    0.0000
   4342 H        1547.7776  249.8875  -77.9856 H       723        0    0.0000
   4343 H        1549.0605  250.0433  -80.7606 H       723        0    0.0000
   4344 H        1549.8945  249.2448  -79.4321 H       723        0    0.0000
   4345 C        1548.0701  248.2250  -80.0658 C.3     724        0    0.0000
   4346 C        1548.5444  247.4724  -81.3139 C.3     724        0    0.0000
   4347 H        1548.1439  247.5760  -79.1844 H       724        0    0.0000
   4348 H        1547.0121  248.4963  -80.1695 H       724        0    0.0000
   4349 H        1547.8875  246.6158  -81.5089 H       724        0    0.0000
   4350 H        1548.4808  248.1248  -82.1933 H       724        0    0.0000
   4351 C        1550.0183  246.9570  -81.1725 C.3     725        0    0.0000
   4352 C        1550.6182  246.5363  -82.5187 C.3     725        0    0.0000
   4353 H        1550.6278  247.7490  -80.7201 H       725        0    0.0000
   4354 H        1550.0316  246.1113  -80.4739 H       725        0    0.0000
   4355 H        1549.8409  246.0959  -83.1555 H       725        0    0.0000
   4356 H        1551.0009  247.4158  -83.0513 H       725        0    0.0000
   4357 C        1551.7826  245.4999  -82.3523 C.3     726        0    0.0000
   4358 C        1552.1687  244.8418  -83.6816 C.3     726        0    0.0000
   4359 H        1552.6514  246.0108  -81.9192 H       726        0    0.0000
   4360 H        1551.4742  244.7346  -81.6293 H       726        0    0.0000
   4361 H        1551.2681  244.5061  -84.2107 H       726        0    0.0000
   4362 H        1552.6631  245.5725  -84.3335 H       726        0    0.0000
   4363 C        1553.1240  243.6151  -83.4818 C.3     727        0    0.0000
   4364 C        1553.8326  243.2131  -84.7800 C.3     727        0    0.0000
   4365 H        1553.8639  243.8650  -82.7112 H       727        0    0.0000
   4366 H        1552.5394  242.7711  -83.0953 H       727        0    0.0000
   4367 H        1553.0955  243.0508  -85.5761 H       727        0    0.0000
   4368 H        1554.4877  244.0256  -85.1180 H       727        0    0.0000
   4369 C        1554.6887  241.9108  -84.6109 C.3     728        0    0.0000
   4370 C        1555.9138  241.8974  -85.5319 C.3     728        0    0.0000
   4371 H        1555.0045  241.8288  -83.5635 H       728        0    0.0000
   4372 H        1554.0532  241.0407  -84.8174 H       728        0    0.0000
   4373 H        1555.6046  242.0636  -86.5713 H       728        0    0.0000
   4374 H        1556.5908  242.7197  -85.2691 H       728        0    0.0000
   4375 C        1556.7040  240.5460  -85.4496 C.3     729        0    0.0000
   4376 C        1557.6102  240.3278  -86.6662 C.3     729        0    0.0000
   4377 H        1557.3015  240.5411  -84.5296 H       729        0    0.0000
   4378 H        1555.9857  239.7212  -85.3630 H       729        0    0.0000
   4379 H        1557.0243  240.4050  -87.5904 H       729        0    0.0000
   4380 H        1558.3748  241.1135  -86.7114 H       729        0    0.0000
   4381 C        1558.3220  238.9315  -86.6342 C.3     730        0    0.0000
   4382 C        1559.7986  239.0229  -87.0348 C.3     730        0    0.0000
   4383 H        1558.2314  238.5115  -85.6248 H       730        0    0.0000
   4384 H        1557.7909  238.2484  -87.3085 H       730        0    0.0000
   4385 H        1559.8846  239.2528  -88.1040 H       730        0    0.0000
   4386 H        1560.2844  239.8457  -86.4956 H       730        0    0.0000
   4387 C        1560.5778  237.6952  -86.7390 C.3     731        0    0.0000
   4388 C        1560.8456  236.8831  -88.0110 C.3     731        0    0.0000
   4389 H        1561.5253  237.9438  -86.2451 H       731        0    0.0000
   4390 H        1559.9980  237.0964  -86.0255 H       731        0    0.0000
   4391 H        1559.9003  236.6618  -88.5219 H       731        0    0.0000
   4392 H        1561.4523  237.4703  -88.7114 H       731        0    0.0000
   4393 C        1561.5850  235.5340  -87.7099 C.3     732        0    0.0000
   4394 C        1560.9326  234.3429  -88.4203 C.3     732        0    0.0000
   4395 H        1562.6332  235.6286  -88.0195 H       732        0    0.0000
   4396 H        1561.5906  235.3682  -86.6254 H       732        0    0.0000
   4397 H        1560.2521  233.8228  -87.7349 H       732        0    0.0000
   4398 H        1560.3235  234.6946  -89.2623 H       732        0    0.0000
   4399 C        1561.9911  233.3180  -88.9557 C.3     733        0    0.0000
   4400 C        1562.3979  232.2934  -87.8910 C.3     733        0    0.0000
   4401 H        1561.5752  232.8052  -89.8318 H       733        0    0.0000
   4402 H        1562.8733  233.8698  -89.3030 H       733        0    0.0000
   4403 H        1562.3296  232.7416  -86.8920 H       733        0    0.0000
   4404 H        1561.7046  231.4432  -87.9029 H       733        0    0.0000
   4405 C        1563.8560  231.7594  -88.1065 C.3     734        0    0.0000
   4406 C        1563.8750  230.3315  -88.6636 C.3     734        0    0.0000
   4407 H        1564.3832  232.4367  -88.7897 H       734        0    0.0000
   4408 H        1564.3914  231.7971  -87.1498 H       734        0    0.0000
   4409 H        1563.7286  229.6089  -87.8512 H       734        0    0.0000
   4410 H        1563.0433  230.1902  -89.3648 H       734        0    0.0000
   4411 C        1565.2188  229.9991  -89.3995 C.3     735        0    0.0000
   4412 C        1565.6241  228.5304  -89.2332 C.3     735        0    0.0000
   4413 H        1565.1080  230.2406  -90.4639 H       735        0    0.0000
   4414 H        1566.0074  230.6536  -89.0084 H       735        0    0.0000
   4415 H        1566.0206  228.3616  -88.2244 H       735        0    0.0000
   4416 H        1564.7445  227.8832  -89.3384 H       735        0    0.0000
   4417 C        1566.7040  228.0899  -90.2808 C.3     736        0    0.0000
   4418 C        1567.3097  226.7214  -89.9501 C.3     736        0    0.0000
   4419 H        1566.2423  228.0665  -91.2758 H       736        0    0.0000
   4420 H        1567.4927  228.8515  -90.3173 H       736        0    0.0000
   4421 H        1568.0070  226.8122  -89.1081 H       736        0    0.0000
   4422 H        1566.5211  226.0278  -89.6328 H       736        0    0.0000
   4423 C        1568.0701  226.0976  -91.1709 C.3     737        0    0.0000
   4424 C        1568.6996  224.7419  -90.8320 C.3     737        0    0.0000
   4425 H        1567.3676  225.9879  -92.0064 H       737        0    0.0000
   4426 H        1568.8451  226.8001  -91.5014 H       737        0    0.0000
   4427 H        1569.2358  224.8044  -89.8771 H       737        0    0.0000
   4428 H        1567.9160  223.9847  -90.7043 H       737        0    0.0000
   4429 C        1569.6960  224.2559  -91.9402 C.3     738        0    0.0000
   4430 C        1570.5795  223.0991  -91.4602 C.3     738        0    0.0000
   4431 H        1569.1211  223.9490  -92.8228 H       738        0    0.0000
   4432 H        1570.3207  225.1028  -92.2502 H       738        0    0.0000
   4433 H        1571.0701  223.3670  -90.5161 H       738        0    0.0000
   4434 H        1569.9629  222.2151  -91.2551 H       738        0    0.0000
   4435 C        1571.6788  222.7159  -92.5099 C.3     739        0    0.0000
   4436 C        1572.1458  221.2639  -92.3585 C.3     739        0    0.0000
   4437 H        1571.2775  222.8788  -93.5178 H       739        0    0.0000
   4438 H        1572.5300  223.3986  -92.3957 H       739        0    0.0000
   4439 H        1572.3734  221.0498  -91.3068 H       739        0    0.0000
   4440 H        1571.3419  220.5777  -92.6527 H       739        0    0.0000
   4441 C        1573.4160  220.9550  -93.2236 C.3     740        0    0.0000
   4442 C        1573.9868  219.5611  -92.9405 C.3     740        0    0.0000
   4443 H        1573.1515  221.0448  -94.2845 H       740        0    0.0000
   4444 H        1574.1755  221.7205  -93.0223 H       740        0    0.0000
   4445 H        1574.0302  219.3851  -91.8585 H       740        0    0.0000
   4446 H        1573.3256  218.7919  -93.3585 H       740        0    0.0000
   4447 C        1575.4226  219.3738  -93.5408 C.3     741        0    0.0000
   4448 C        1575.8615  217.9053  -93.5500 C.3     741        0    0.0000
   4449 H        1575.4344  219.7763  -94.5614 H       741        0    0.0000
   4450 H        1576.1312  219.9745  -92.9572 H       741        0    0.0000
   4451 H        1576.9515  217.8379  -93.4466 H       741        0    0.0000
   4452 H        1575.4301  217.3785  -92.6899 H       741        0    0.0000
   4453 C        1575.4316  217.1650  -94.8633 C.3     742        0    0.0000
   4454 C        1575.9761  215.7337  -94.9279 C.3     742        0    0.0000
   4455 H        1574.3363  217.1539  -94.9205 H       742        0    0.0000
   4456 H        1575.7865  217.7417  -95.7265 H       742        0    0.0000
   4457 H        1576.0822  215.4184  -95.9731 H       742        0    0.0000
   4458 H        1576.9779  215.6920  -94.4828 H       742        0    0.0000
   4459 C        1575.0496  214.7116  -94.1833 C.3     743        0    0.0000
   4460 C        1575.8503  213.6504  -93.4206 C.3     743        0    0.0000
   4461 H        1574.4000  215.2620  -93.4915 H       743        0    0.0000
   4462 H        1574.3917  214.2305  -94.9177 H       743        0    0.0000
   4463 H        1576.7456  214.1022  -92.9757 H       743        0    0.0000
   4464 H        1575.2529  213.2525  -92.5908 H       743        0    0.0000
   4465 C        1576.2896  212.4611  -94.3426 C.3     744        0    0.0000
   4466 C        1577.8134  212.3595  -94.4732 C.3     744        0    0.0000
   4467 H        1575.8840  211.5277  -93.9330 H       744        0    0.0000
   4468 H        1575.8353  212.5944  -95.3322 H       744        0    0.0000
   4469 H        1578.2318  213.3319  -94.7609 H       744        0    0.0000
   4470 H        1578.2573  212.0995  -93.5044 H       744        0    0.0000
   4471 C        1578.2488  211.2887  -95.5321 C.3     745        0    0.0000
   4472 C        1579.7144  210.8716  -95.3678 C.3     745        0    0.0000
   4473 H        1577.5953  210.4123  -95.4379 H       745        0    0.0000
   4474 H        1578.0844  211.6977  -96.5368 H       745        0    0.0000
   4475 H        1580.3752  211.6980  -95.6572 H       745        0    0.0000
   4476 H        1579.9271  210.6523  -94.3142 H       745        0    0.0000
   4477 C        1580.0737  209.6119  -96.2288 C.3     746        0    0.0000
   4478 C        1581.5190  209.1514  -96.0093 C.3     746        0    0.0000
   4479 H        1579.3784  208.8015  -95.9771 H       746        0    0.0000
   4480 H        1579.9111  209.8490  -97.2874 H       746        0    0.0000
   4481 H        1582.2104  209.9834  -96.1905 H       746        0    0.0000
   4482 H        1581.6616  208.8447  -94.9656 H       746        0    0.0000
   4483 C        1581.9104  207.9561  -96.9451 C.3     747        0    0.0000
   4484 C        1582.5999  206.8210  -96.1800 C.3     747        0    0.0000
   4485 H        1581.0045  207.5815  -97.4378 H       747        0    0.0000
   4486 H        1582.5692  208.3294  -97.7388 H       747        0    0.0000
   4487 H        1583.4705  207.2084  -95.6364 H       747        0    0.0000
   4488 H        1581.9177  206.4059  -95.4277 H       747        0    0.0000
   4489 C        1583.0701  205.6649  -97.1287 C.3     748        0    0.0000
   4490 C        1584.3745  205.0167  -96.6520 C.3     748        0    0.0000
   4491 H        1582.2754  204.9110  -97.1882 H       748        0    0.0000
   4492 H        1583.1981  206.0682  -98.1408 H       748        0    0.0000
   4493 H        1585.1239  205.7900  -96.4417 H       748        0    0.0000
   4494 H        1584.2052  204.4781  -95.7114 H       748        0    0.0000
   4495 C        1584.9619  204.0177  -97.7077 C.3     749        0    0.0000
   4496 C        1585.8398  202.9401  -97.0619 C.3     749        0    0.0000
   4497 H        1584.1321  203.5504  -98.2522 H       749        0    0.0000
   4498 H        1585.5432  204.5844  -98.4455 H       749        0    0.0000
   4499 H        1586.6278  203.4084  -96.4591 H       749        0    0.0000
   4500 H        1585.2408  202.3277  -96.3766 H       749        0    0.0000
   4501 C        1586.5077  202.0019  -98.1255 C.3     750        0    0.0000
   4502 C        1587.4152  200.9476  -97.4819 C.3     750        0    0.0000
   4503 H        1585.7190  201.5127  -98.7105 H       750        0    0.0000
   4504 H        1587.0847  202.6171  -98.8271 H       750        0    0.0000
   4505 H        1588.1093  201.4266  -96.7803 H       750        0    0.0000
   4506 H        1586.8138  200.2404  -96.8970 H       750        0    0.0000
   4507 C        1588.2435  200.1476  -98.5455 C.3     751        0    0.0000
   4508 C        1588.8508  198.8659  -97.9645 C.3     751        0    0.0000
   4509 H        1587.5900  199.9039  -99.3923 H       751        0    0.0000
   4510 H        1589.0372  200.7962  -98.9364 H       751        0    0.0000
   4511 H        1589.5037  199.1095  -97.1171 H       751        0    0.0000
   4512 H        1588.0569  198.2168  -97.5742 H       751        0    0.0000
   4513 C        1589.6801  198.0663  -99.0277 C.3     752        0    0.0000
   4514 C        1590.3284  196.8108  -98.4343 C.3     752        0    0.0000
   4515 H        1589.0182  197.7911  -99.8582 H       752        0    0.0000
   4516 H        1590.4507  198.7265  -99.4444 H       752        0    0.0000
   4517 H        1590.8931  197.0704  -97.5302 H       752        0    0.0000
   4518 H        1589.5541  196.0966  -98.1277 H       752        0    0.0000
   4519 C        1591.2941  196.1052  -99.4479 C.3     753        0    0.0000
   4520 C        1591.7760  194.7424  -98.9382 C.3     753        0    0.0000
   4521 H        1590.7747  195.9859 -100.4068 H       753        0    0.0000
   4522 H        1592.1527  196.7621  -99.6341 H       753        0    0.0000
   4523 H        1592.5388  194.8794  -98.1618 H       753        0    0.0000
   4524 H        1590.9447  194.2001  -98.4708 H       753        0    0.0000
   4525 C        1592.3754  193.8573 -100.0849 C.3     754        0    0.0000
   4526 C        1593.1025  192.6210  -99.5448 C.3     754        0    0.0000
   4527 H        1591.5638  193.5526 -100.7573 H       754        0    0.0000
   4528 H        1593.0646  194.4690 -100.6803 H       754        0    0.0000
   4529 H        1594.1052  192.5524  -99.9847 H       754        0    0.0000
   4530 H        1593.2400  192.7094  -98.4600 H       754        0    0.0000
   4531 C        1592.3253  191.2942  -99.8492 C.3     755        0    0.0000
   4532 C        1593.1637  190.0473  -99.5465 C.3     755        0    0.0000
   4533 H        1591.4030  191.2805  -99.2555 H       755        0    0.0000
   4534 H        1592.0214  191.2963 -100.9034 H       755        0    0.0000
   4535 H        1593.5631  190.1014  -98.5263 H       755        0    0.0000
   4536 H        1592.5336  189.1505  -99.5909 H       755        0    0.0000
   4537 C        1594.3574  189.8764 -100.5481 C.3     756        0    0.0000
   4538 C        1595.0648  188.5267 -100.3839 C.3     756        0    0.0000
   4539 H        1593.9773  189.9799 -101.5721 H       756        0    0.0000
   4540 H        1595.0699  190.6959 -100.3924 H       756        0    0.0000
   4541 H        1594.3372  187.7510 -100.1149 H       756        0    0.0000
   4542 H        1595.5149  188.2198 -101.3362 H       756        0    0.0000
   4543 C        1596.1841  188.5721  -99.2872 C.3     757        0    0.0000
   4544 C        1596.8333  187.2019  -99.0630 C.3     757        0    0.0000
   4545 H        1596.9442  189.3037  -99.5878 H       757        0    0.0000
   4546 H        1595.7466  188.9389  -98.3504 H       757        0    0.0000
   4547 H        1597.5140  187.2443  -98.2037 H       757        0    0.0000
   4548 H        1596.0656  186.4570  -98.8202 H       757        0    0.0000
   4549 C        1597.6342  186.7113 -100.3183 C.3     758        0    0.0000
   4550 C        1598.0800  185.2506 -100.1885 C.3     758        0    0.0000
   4551 H        1597.0060  186.8351 -101.2090 H       758        0    0.0000
   4552 H        1598.5078  187.3604 -100.4561 H       758        0    0.0000
   4553 H        1599.0701  185.1179 -100.6419 H       758        0    0.0000
   4554 H        1598.1793  184.9804  -99.1300 H       758        0    0.0000
   4555 C        1597.0747  184.2598 -100.8707 C.3     759        0    0.0000
   4556 C        1597.5635  182.8082 -100.8173 C.3     759        0    0.0000
   4557 H        1596.1003  184.3472 -100.3744 H       759        0    0.0000
   4558 H        1596.9261  184.5687 -101.9130 H       759        0    0.0000
   4559 H        1596.7433  182.1255 -101.0718 H       759        0    0.0000
   4560 H        1598.3501  182.6483 -101.5651 H       759        0    0.0000
   4561 C        1598.1230  182.4214  -99.4050 C.3     760        0    0.0000
   4562 C        1599.2286  181.3629  -99.4881 C.3     760        0    0.0000
   4563 H        1598.5046  183.3262  -98.9158 H       760        0    0.0000
   4564 H        1597.2959  182.0534  -98.7854 H       760        0    0.0000
   4565 H        1599.6583  181.3465 -100.4974 H       760        0    0.0000
   4566 H        1600.0458  181.6178  -98.8019 H       760        0    0.0000
   4567 C        1598.7043  179.9275  -99.1387 C.3     761        0    0.0000
   4568 C        1599.7721  178.8499  -99.3574 C.3     761        0    0.0000
   4569 H        1598.3690  179.9181  -98.0942 H       761        0    0.0000
   4570 H        1597.8223  179.7135  -99.7547 H       761        0    0.0000
   4571 H        1600.7559  179.2278  -99.0524 H       761        0    0.0000
   4572 H        1599.5605  177.9773  -98.7272 H       761        0    0.0000
   4573 C        1599.8505  178.3861 -100.8528 C.3     762        0    0.0000
   4574 C        1600.8412  177.2336 -101.0523 C.3     762        0    0.0000
   4575 H        1598.8489  178.0824 -101.1818 H       762        0    0.0000
   4576 H        1600.1400  179.2427 -101.4740 H       762        0    0.0000
   4577 H        1600.3049  176.3237 -101.3490 H       762        0    0.0000
   4578 H        1601.5348  177.4711 -101.8685 H       762        0    0.0000
   4579 C        1601.6702  176.9318  -99.7565 C.3     763        0    0.0000
   4580 C        1602.3004  175.5349  -99.7823 C.3     763        0    0.0000
   4581 H        1602.4513  177.6948  -99.6506 H       763        0    0.0000
   4582 H        1601.0121  177.0315  -98.8845 H       763        0    0.0000
   4583 H        1601.7135  174.8695 -100.4275 H       763        0    0.0000
   4584 H        1603.3076  175.5846 -100.2140 H       763        0    0.0000
   4585 C        1602.3942  174.8989  -98.3526 C.3     764        0    0.0000
   4586 C        1602.8855  173.4478  -98.3935 C.3     764        0    0.0000
   4587 H        1603.0695  175.5075  -97.7384 H       764        0    0.0000
   4588 H        1601.4064  174.9483  -97.8781 H       764        0    0.0000
   4589 H        1602.3267  172.8410  -97.6702 H       764        0    0.0000
   4590 H        1602.6948  173.0138  -99.3829 H       764        0    0.0000
   4591 C        1604.4161  173.3297  -98.0764 C.3     765        0    0.0000
   4592 C        1604.9458  171.9077  -98.2919 C.3     765        0    0.0000
   4593 H        1604.9645  174.0356  -98.7125 H       765        0    0.0000
   4594 H        1604.5875  173.6418  -97.0388 H       765        0    0.0000
   4595 H        1605.6123  171.6255  -97.4674 H       765        0    0.0000
   4596 H        1604.1147  171.1915  -98.2844 H       765        0    0.0000
   4597 C        1605.7256  171.7628  -99.6442 C.3     766        0    0.0000
   4598 C        1606.0806  170.3049  -99.9566 C.3     766        0    0.0000
   4599 H        1605.1134  172.1823 -100.4521 H       766        0    0.0000
   4600 H        1606.6382  172.3694  -99.5929 H       766        0    0.0000
   4601 H        1605.4625  169.9364 -100.7848 H       766        0    0.0000
   4602 H        1607.1243  170.2342 -100.2868 H       766        0    0.0000
   4603 C        1605.8778  169.3654  -98.7181 C.3     767        0    0.0000
   4604 C        1606.2041  167.9026  -99.0389 C.3     767        0    0.0000
   4605 H        1606.5126  169.7210  -97.8969 H       767        0    0.0000
   4606 H        1604.8397  169.4525  -98.3744 H       767        0    0.0000
   4607 H        1605.3905  167.4552  -99.6233 H       767        0    0.0000
   4608 H        1607.1064  167.8462  -99.6604 H       767        0    0.0000
   4609 C        1606.4274  167.0461  -97.7452 C.3     768        0    0.0000
   4610 C        1607.2006  165.7538  -98.0302 C.3     768        0    0.0000
   4611 H        1606.9677  167.6530  -97.0081 H       768        0    0.0000
   4612 H        1605.4507  166.8106  -97.3042 H       768        0    0.0000
   4613 H        1607.1323  165.5020  -99.0957 H       768        0    0.0000
   4614 H        1608.2654  165.8957  -97.8076 H       768        0    0.0000
   4615 C        1606.6654  164.5437  -97.1896 C.3     769        0    0.0000
   4616 C        1607.4576  163.2582  -97.4525 C.3     769        0    0.0000
   4617 H        1606.7134  164.8039  -96.1251 H       769        0    0.0000
   4618 H        1605.6061  164.3881  -97.4286 H       769        0    0.0000
   4619 H        1606.9955  162.6924  -98.2709 H       769        0    0.0000
   4620 H        1608.4768  163.5039  -97.7756 H       769        0    0.0000
   4621 C        1607.5371  162.3394  -96.1849 C.3     770        0    0.0000
   4622 C        1608.5125  161.1723  -96.3737 C.3     770        0    0.0000
   4623 H        1607.8416  162.9488  -95.3250 H       770        0    0.0000
   4624 H        1606.5331  161.9582  -95.9610 H       770        0    0.0000
   4625 H        1609.2168  161.3981  -97.1841 H       770        0    0.0000
   4626 H        1609.1115  161.0319  -95.4655 H       770        0    0.0000
   4627 C        1607.7748  159.8294  -96.7052 C.3     771        0    0.0000
   4628 C        1608.7231  158.6255  -96.6858 C.3     771        0    0.0000
   4629 H        1606.9652  159.6822  -95.9797 H       771        0    0.0000
   4630 H        1607.3018  159.9197  -97.6910 H       771        0    0.0000
   4631 H        1609.5690  158.8238  -96.0160 H       771        0    0.0000
   4632 H        1608.2050  157.7448  -96.2868 H       771        0    0.0000
   4633 C        1609.2775  158.2827  -98.1116 C.3     772        0    0.0000
   4634 C        1610.2935  157.1357  -98.0795 C.3     772        0    0.0000
   4635 H        1608.4358  158.0216  -98.7649 H       772        0    0.0000
   4636 H        1609.7391  159.1823  -98.5371 H       772        0    0.0000
   4637 H        1610.4685  156.7598  -99.0951 H       772        0    0.0000
   4638 H        1611.2594  157.4990  -97.7073 H       772        0    0.0000
   4639 C        1609.8186  155.9465  -97.1752 C.3     773        0    0.0000
   4640 C        1610.9629  154.9876  -96.8283 C.3     773        0    0.0000
   4641 H        1609.3782  156.3544  -96.2570 H       773        0    0.0000
   4642 H        1609.0184  155.4048  -97.6949 H       773        0    0.0000
   4643 H        1611.6305  154.8711  -97.6909 H       773        0    0.0000
   4644 H        1611.5691  155.4045  -96.0145 H       773        0    0.0000
   4645 C        1610.4426  153.5730  -96.3973 C.3     774        0    0.0000
   4646 C        1611.5245  152.7456  -95.6944 C.3     774        0    0.0000
   4647 H        1609.5774  153.7012  -95.7350 H       774        0    0.0000
   4648 H        1610.0823  153.0425  -97.2873 H       774        0    0.0000
   4649 H        1612.4979  152.9173  -96.1702 H       774        0    0.0000
   4650 H        1611.6237  153.0658  -94.6498 H       774        0    0.0000
   4651 C        1611.2113  151.2099  -95.7245 C.3     775        0    0.0000
   4652 C        1612.1700  150.4041  -94.8411 C.3     775        0    0.0000
   4653 H        1610.1763  151.0536  -95.3960 H       775        0    0.0000
   4654 H        1611.2694  150.8573  -96.7617 H       775        0    0.0000
   4655 H        1613.2046  150.7220  -95.0213 H       775        0    0.0000
   4656 H        1611.9603  150.5997  -93.7822 H       775        0    0.0000
   4657 C        1612.0631  148.8618  -95.1008 C.3     776        0    0.0000
   4658 C        1612.6177  148.0366  -93.9343 C.3     776        0    0.0000
   4659 H        1611.0111  148.6049  -95.2765 H       776        0    0.0000
   4660 H        1612.6047  148.6200  -96.0235 H       776        0    0.0000
   4661 H        1613.5073  148.5247  -93.5177 H       776        0    0.0000
   4662 H        1611.8785  147.9850  -93.1251 H       776        0    0.0000
   4663 C        1612.9968  146.5779  -94.3657 C.3     777        0    0.0000
   4664 C        1613.4237  145.7124  -93.1750 C.3     777        0    0.0000
   4665 H        1612.1357  146.1236  -94.8713 H       777        0    0.0000
   4666 H        1613.8063  146.6267  -95.1045 H       777        0    0.0000
   4667 H        1614.4163  145.2825  -93.3590 H       777        0    0.0000
   4668 H        1613.5105  146.3304  -92.2727 H       777        0    0.0000
   4669 C        1612.4127  144.5477  -92.8944 C.3     778        0    0.0000
   4670 C        1613.0814  143.3500  -92.2108 C.3     778        0    0.0000
   4671 H        1611.5969  144.9306  -92.2688 H       778        0    0.0000
   4672 H        1611.9612  144.2349  -93.8442 H       778        0    0.0000
   4673 H        1612.7488  142.4155  -92.6794 H       778        0    0.0000
   4674 H        1614.1691  143.3996  -92.3446 H       778        0    0.0000
   4675 C        1612.7634  143.2874  -90.6771 C.3     779        0    0.0000
   4676 C        1613.1531  141.9406  -90.0576 C.3     779        0    0.0000
   4677 H        1613.2968  144.1022  -90.1718 H       779        0    0.0000
   4678 H        1611.6923  143.4732  -90.5301 H       779        0    0.0000
   4679 H        1612.4913  141.7092  -89.2139 H       779        0    0.0000
   4680 H        1613.0205  141.1365  -90.7919 H       779        0    0.0000
   4681 C        1614.6377  141.9256  -89.5543 C.3     780        0    0.0000
   4682 C        1615.0305  140.5758  -88.9438 C.3     780        0    0.0000
   4683 H        1615.2990  142.1642  -90.3966 H       780        0    0.0000
   4684 H        1614.7683  142.7253  -88.8149 H       780        0    0.0000
   4685 H        1615.5535  140.7313  -87.9922 H       780        0    0.0000
   4686 H        1614.1313  139.9896  -88.7169 H       780        0    0.0000
   4687 C        1615.9523  139.7388  -89.8962 C.3     781        0    0.0000
   4688 C        1615.8118  138.2304  -89.6625 C.3     781        0    0.0000
   4689 H        1615.7015  139.9832  -90.9358 H       781        0    0.0000
   4690 H        1616.9935  140.0479  -89.7421 H       781        0    0.0000
   4691 H        1616.7891  137.7419  -89.7609 H       781        0    0.0000
   4692 H        1615.4653  138.0390  -88.6395 H       781        0    0.0000
   4693 C        1614.8104  137.5642  -90.6679 C.3     782        0    0.0000
   4694 C        1614.0042  136.4327  -90.0208 C.3     782        0    0.0000
   4695 H        1614.1327  138.3352  -91.0552 H       782        0    0.0000
   4696 H        1615.3745  137.1804  -91.5269 H       782        0    0.0000
   4697 H        1613.2230  136.8499  -89.3734 H       782        0    0.0000
   4698 H        1613.4924  135.8458  -90.7938 H       782        0    0.0000
   4699 C        1614.9052  135.4720  -89.1708 C.3     783        0    0.0000
   4700 C        1614.0789  134.5359  -88.2819 C.3     783        0    0.0000
   4701 H        1615.5363  134.8856  -89.8502 H       783        0    0.0000
   4702 H        1615.5823  136.0757  -88.5540 H       783        0    0.0000
   4703 H        1613.6710  135.0908  -87.4279 H       783        0    0.0000
   4704 H        1613.2208  134.1450  -88.8425 H       783        0    0.0000
   4705 C        1614.9227  133.3292  -87.7438 C.3     784        0    0.0000
   4706 C        1614.3882  132.7953  -86.4103 C.3     784        0    0.0000
   4707 H        1614.9193  132.5316  -88.4969 H       784        0    0.0000
   4708 H        1615.9656  133.6501  -87.6295 H       784        0    0.0000
   4709 H        1614.3561  133.6021  -85.6677 H       784        0    0.0000
   4710 H        1613.3577  132.4394  -86.5336 H       784        0    0.0000
   4711 C        1615.2632  131.6234  -85.8458 C.3     785        0    0.0000
   4712 C        1614.4261  130.5842  -85.0921 C.3     785        0    0.0000
   4713 H        1615.7947  131.1461  -86.6784 H       785        0    0.0000
   4714 H        1616.0294  132.0424  -85.1818 H       785        0    0.0000
   4715 H        1613.9700  131.0404  -84.2047 H       785        0    0.0000
   4716 H        1613.6014  130.2345  -85.7255 H       785        0    0.0000
   4717 C        1615.2778  129.3472  -84.6431 C.3     786        0    0.0000
   4718 C        1614.4565  128.3403  -83.8304 C.3     786        0    0.0000
   4719 H        1615.6930  128.8613  -85.5348 H       786        0    0.0000
   4720 H        1616.1310  129.7014  -84.0514 H       786        0    0.0000
   4721 H        1614.1019  128.8060  -82.9025 H       786        0    0.0000
   4722 H        1613.5638  128.0413  -84.3937 H       786        0    0.0000
   4723 C        1615.2797  127.0562  -83.4689 C.3     787        0    0.0000
   4724 C        1614.6034  126.2212  -82.3760 C.3     787        0    0.0000
   4725 H        1615.4106  126.4532  -84.3759 H       787        0    0.0000
   4726 H        1616.2828  127.3590  -83.1442 H       787        0    0.0000
   4727 H        1614.4812  126.8211  -81.4657 H       787        0    0.0000
   4728 H        1613.5963  125.9268  -82.6966 H       787        0    0.0000
   4729 C        1615.4194  124.9297  -82.0245 C.3     788        0    0.0000
   4730 C        1614.6755  124.0230  -81.0378 C.3     788        0    0.0000
   4731 H        1615.6321  124.3825  -82.9513 H       788        0    0.0000
   4732 H        1616.3884  125.2271  -81.6048 H       788        0    0.0000
   4733 H        1614.4222  124.5835  -80.1294 H       788        0    0.0000
   4734 H        1613.7271  123.6885  -81.4761 H       788        0    0.0000
   4735 C        1615.5186  122.7639  -80.6363 C.3     789        0    0.0000
   4736 C        1614.7195  121.7807  -79.7738 C.3     789        0    0.0000
   4737 H        1615.8671  122.2658  -81.5495 H       789        0    0.0000
   4738 H        1616.4143  123.0955  -80.0967 H       789        0    0.0000
   4739 H        1614.3690  122.2794  -78.8617 H       789        0    0.0000
   4740 H        1613.8248  121.4473  -80.3142 H       789        0    0.0000
   4741 C        1615.5635  120.5231  -79.3695 C.3     790        0    0.0000
   4742 C        1614.7742  119.5543  -78.4822 C.3     790        0    0.0000
   4743 H        1615.8959  120.0121  -80.2816 H       790        0    0.0000
   4744 H        1616.4690  120.8577  -78.8482 H       790        0    0.0000
   4745 H        1614.4387  120.0663  -77.5717 H       790        0    0.0000
   4746 H        1613.8705  119.2170  -79.0049 H       790        0    0.0000
   4747 C        1615.6199  118.2991  -78.0739 C.3     791        0    0.0000
   4748 C        1614.8549  117.3653  -77.1295 C.3     791        0    0.0000
   4749 H        1615.9117  117.7584  -78.9827 H       791        0    0.0000
   4750 H        1616.5481  118.6380  -77.5973 H       791        0    0.0000
   4751 H        1614.5610  117.9068  -76.2218 H       791        0    0.0000
   4752 H        1613.9280  117.0245  -77.6071 H       791        0    0.0000
   4753 C        1615.7019  116.1120  -76.7184 C.3     792        0    0.0000
   4754 C        1614.9279  115.1657  -75.7940 C.3     792        0    0.0000
   4755 H        1616.0111  115.5806  -77.6270 H       792        0    0.0000
   4756 H        1616.6204  116.4524  -76.2245 H       792        0    0.0000
   4757 H        1614.6089  115.6999  -74.8904 H       792        0    0.0000
   4758 H        1614.0149  114.8164  -76.2922 H       792        0    0.0000
   4759 C        1615.7803  113.9202  -75.3701 C.3     793        0    0.0000
   4760 C        1615.0063  112.9741  -74.4455 C.3     793        0    0.0000
   4761 H        1616.0990  113.3858  -76.2737 H       793        0    0.0000
   4762 H        1616.6932  114.2694  -74.8722 H       793        0    0.0000
   4763 H        1614.6801  113.5107  -73.5460 H       793        0    0.0000
   4764 H        1614.0979  112.6179  -74.9468 H       793        0    0.0000
   4765 C        1615.8629  111.7349  -74.0117 C.3     794        0    0.0000
   4766 C        1615.0873  110.7863  -73.0909 C.3     794        0    0.0000
   4767 H        1616.1924  111.2003  -74.9112 H       794        0    0.0000
   4768 H        1616.7697  112.0910  -73.5072 H       794        0    0.0000
   4769 H        1614.7335  111.3279  -72.2049 H       794        0    0.0000
   4770 H        1614.1957  110.4079  -73.6058 H       794        0    0.0000
   4771 C        1615.9567  109.5680  -72.6248 C.3     795        0    0.0000
   4772 C        1615.1803  108.6178  -71.7065 C.3     795        0    0.0000
   4773 H        1616.3124  109.0278  -73.5109 H       795        0    0.0000
   4774 H        1616.8474  109.9463  -72.1080 H       795        0    0.0000
   4775 H        1614.4379  108.0566  -72.2873 H       795        0    0.0000
   4776 H        1615.8617  107.8782  -71.2679 H       795        0    0.0000
   4777 C        1614.4464  109.3780  -70.5485 C.3     796        0    0.0000
   4778 C        1613.7651  108.4200  -69.5650 C.3     796        0    0.0000
   4779 H        1615.1750  110.0048  -70.0195 H       796        0    0.0000
   4780 H        1613.7050  110.0581  -70.9861 H       796        0    0.0000
   4781 H        1614.2571  108.4735  -68.5860 H       796        0    0.0000
   4782 H        1612.7213  108.7199  -69.4099 H       796        0    0.0000
   4783 C        1613.7952  106.9346  -70.0652 C.3     797        0    0.0000
   4784 C        1613.2896  105.9533  -69.0020 C.3     797        0    0.0000
   4785 H        1613.1832  106.8546  -70.9724 H       797        0    0.0000
   4786 H        1614.8221  106.6796  -70.3545 H       797        0    0.0000
   4787 H        1613.6899  106.2261  -68.0177 H       797        0    0.0000
   4788 H        1612.1969  106.0123  -68.9250 H       797        0    0.0000
   4789 C        1613.6946  104.4726  -69.3196 C.3     798        0    0.0000
   4790 C        1613.2733  103.5042  -68.2090 C.3     798        0    0.0000
   4791 H        1613.2352  104.1766  -70.2709 H       798        0    0.0000
   4792 H        1614.7808  104.4269  -69.4666 H       798        0    0.0000
   4793 H        1612.6194  104.0158  -67.4919 H       798        0    0.0000
   4794 H        1612.6903  102.6769  -68.6323 H       798        0    0.0000
   4795 C        1614.5035  102.9127  -67.4381 C.3     799        0    0.0000
   4796 C        1614.1313  101.6773  -66.6109 C.3     799        0    0.0000
   4797 H        1615.2860  102.6577  -68.1635 H       799        0    0.0000
   4798 H        1614.9197  103.6907  -66.7861 H       799        0    0.0000
   4799 H        1613.2068  101.2306  -66.9971 H       799        0    0.0000
   4800 H        1614.9131  100.9131  -66.7034 H       799        0    0.0000
   4801 C        1613.9331  102.0161  -65.0932 C.3     800        0    0.0000
   4802 C        1613.0190  101.0082  -64.3877 C.3     800        0    0.0000
   4803 H        1614.9152  102.0394  -64.6048 H       800        0    0.0000
   4804 H        1613.5149  103.0268  -65.0082 H       800        0    0.0000
   4805 H        1612.6252  101.4423  -63.4604 H       800        0    0.0000
   4806 H        1612.1530  100.7786  -65.0208 H       800        0    0.0000
   4807 C        1613.7622   99.6713  -64.0441 C.3     801        0    0.0000
   4808 C        1612.8351   98.4536  -64.1263 C.3     801        0    0.0000
   4809 H        1614.6064   99.5486  -64.7338 H       801        0    0.0000
   4810 H        1614.1882   99.7525  -63.0364 H       801        0    0.0000
   4811 H        1611.9592   98.6888  -64.7433 H       801        0    0.0000
   4812 H        1613.3519   97.6198  -64.6174 H       801        0    0.0000
   4813 C        1612.3461   97.9828  -62.7132 C.3     802        0    0.0000
   4814 C        1611.7932   96.5535  -62.7363 C.3     802        0    0.0000
   4815 H        1613.1837   98.0508  -62.0083 H       802        0    0.0000
   4816 H        1611.5764   98.6781  -62.3556 H       802        0    0.0000
   4817 H        1610.7900   96.5454  -63.1805 H       802        0    0.0000
   4818 H        1612.4233   95.9167  -63.3693 H       802        0    0.0000
   4819 C        1611.7161   95.9231  -61.3030 C.3     803        0    0.0000
   4820 C        1611.8103   94.3938  -61.3353 C.3     803        0    0.0000
   4821 H        1612.5266   96.3371  -60.6905 H       803        0    0.0000
   4822 H        1610.7751   96.2320  -60.8310 H       803        0    0.0000
   4823 H        1610.8243   93.9604  -61.5439 H       803        0    0.0000
   4824 H        1612.4731   94.0749  -62.1494 H       803        0    0.0000
   4825 C        1612.3469   93.8029  -59.9861 C.3     804        0    0.0000
   4826 C        1611.4031   92.7483  -59.3978 C.3     804        0    0.0000
   4827 H        1613.3378   93.3654  -60.1609 H       804        0    0.0000
   4828 H        1612.4865   94.6233  -59.2713 H       804        0    0.0000
   4829 H        1610.5436   93.2363  -58.9218 H       804        0    0.0000
   4830 H        1611.0018   92.1143  -60.1982 H       804        0    0.0000
   4831 C        1612.1160   91.8366  -58.3405 C.3     805        0    0.0000
   4832 C        1611.3835   90.5063  -58.1326 C.3     805        0    0.0000
   4833 H        1613.1459   91.6514  -58.6702 H       805        0    0.0000
   4834 H        1612.1825   92.3818  -57.3909 H       805        0    0.0000
   4835 H        1610.3440   90.5923  -58.4717 H       805        0    0.0000
   4836 H        1611.8496   89.7212  -58.7409 H       805        0    0.0000
   4837 C        1611.3896   90.0530  -56.6319 C.3     806        0    0.0000
   4838 C        1610.3514   88.9610  -56.3507 C.3     806        0    0.0000
   4839 H        1612.3936   89.6926  -56.3754 H       806        0    0.0000
   4840 H        1611.1973   90.9273  -55.9975 H       806        0    0.0000
   4841 H        1609.3778   89.4157  -56.1303 H       806        0    0.0000
   4842 H        1610.2129   88.3356  -57.2413 H       806        0    0.0000
   4843 C        1610.7646   88.0439  -55.1484 C.3     807        0    0.0000
   4844 C        1610.0355   86.6959  -55.1689 C.3     807        0    0.0000
   4845 H        1611.8496   87.8852  -55.1813 H       807        0    0.0000
   4846 H        1610.5518   88.5724  -54.2111 H       807        0    0.0000
   4847 H        1608.9574   86.8532  -55.2966 H       807        0    0.0000
   4848 H        1610.3707   86.0998  -56.0269 H       807        0    0.0000
   4849 C        1610.2739   85.8715  -53.8570 C.3     808        0    0.0000
   4850 C        1609.0963   84.9466  -53.5301 C.3     808        0    0.0000
   4851 H        1611.1936   85.2840  -53.9707 H       808        0    0.0000
   4852 H        1610.4463   86.5687  -53.0277 H       808        0    0.0000
   4853 H        1608.1960   85.5405  -53.3296 H       808        0    0.0000
   4854 H        1608.8676   84.3093  -54.3933 H       808        0    0.0000
   4855 C        1609.3855   84.0326  -52.2897 C.3     809        0    0.0000
   4856 C        1608.5387   82.7550  -52.2996 C.3     809        0    0.0000
   4857 H        1610.4523   83.7768  -52.2799 H       809        0    0.0000
   4858 H        1609.1906   84.6059  -51.3749 H       809        0    0.0000
   4859 H        1607.4758   83.0074  -52.1997 H       809        0    0.0000
   4860 H        1608.6506   82.2370  -53.2602 H       809        0    0.0000
   4861 C        1608.9349   81.7707  -51.1457 C.3     810        0    0.0000
   4862 C        1607.7548   80.9061  -50.6888 C.3     810        0    0.0000
   4863 H        1609.7571   81.1322  -51.4922 H       810        0    0.0000
   4864 H        1609.3235   82.3536  -50.3013 H       810        0    0.0000
   4865 H        1606.9644   81.5404  -50.2687 H       810        0    0.0000
   4866 H        1607.3163   80.3838  -51.5481 H       810        0    0.0000
   4867 C        1608.1763   79.8455  -49.6141 C.3     811        0    0.0000
   4868 C        1607.0150   78.9273  -49.2175 C.3     811        0    0.0000
   4869 H        1609.0076   79.2502  -50.0118 H       811        0    0.0000
   4870 H        1608.5593   80.3706  -48.7303 H       811        0    0.0000
   4871 H        1606.2041   79.5173  -48.7727 H       811        0    0.0000
   4872 H        1606.5988   78.4410  -50.1085 H       811        0    0.0000
   4873 C        1607.4537   77.8214  -48.1968 C.3     812        0    0.0000
   4874 C        1606.2609   77.0301  -47.6492 C.3     812        0    0.0000
   4875 H        1608.1597   77.1431  -48.6921 H       812        0    0.0000
   4876 H        1607.9998   78.2972  -47.3728 H       812        0    0.0000
   4877 H        1605.5607   77.7069  -47.1440 H       812        0    0.0000
   4878 H        1605.7084   76.5635  -48.4741 H       812        0    0.0000
   4879 C        1606.7012   75.9137  -46.6406 C.3     813        0    0.0000
   4880 C        1605.5134   75.0903  -46.1305 C.3     813        0    0.0000
   4881 H        1607.4290   75.2580  -47.1345 H       813        0    0.0000
   4882 H        1607.2225   76.3842  -45.7976 H       813        0    0.0000
   4883 H        1604.7913   75.7444  -45.6264 H       813        0    0.0000
   4884 H        1604.9854   74.6293  -46.9744 H       813        0    0.0000
   4885 C        1605.9554   73.9633  -45.1347 C.3     814        0    0.0000
   4886 C        1604.7651   73.1565  -44.6048 C.3     814        0    0.0000
   4887 H        1606.6636   73.2983  -45.6448 H       814        0    0.0000
   4888 H        1606.5001   74.4224  -44.3002 H       814        0    0.0000
   4889 H        1604.0541   73.8225  -44.1005 H       814        0    0.0000
   4890 H        1604.2245   72.6918  -45.4387 H       814        0    0.0000
   4891 C        1605.2062   72.0357  -43.6015 C.3     815        0    0.0000
   4892 C        1604.0178   71.2158  -43.0873 C.3     815        0    0.0000
   4893 H        1605.9287   71.3783  -44.1010 H       815        0    0.0000
   4894 H        1605.7338   72.5019  -42.7602 H       815        0    0.0000
   4895 H        1603.2959   71.8730  -42.5868 H       815        0    0.0000
   4896 H        1603.4896   70.7505  -43.9287 H       815        0    0.0000
   4897 C        1604.4591   70.0939  -42.0852 C.3     816        0    0.0000
   4898 C        1603.2705   69.2748  -41.5701 C.3     816        0    0.0000
   4899 H        1605.1805   69.4362  -42.5860 H       816        0    0.0000
   4900 H        1604.9882   70.5591  -41.2442 H       816        0    0.0000
   4901 H        1602.5487   69.9328  -41.0703 H       816        0    0.0000
   4902 H        1602.7422   68.8087  -42.4110 H       816        0    0.0000
   4903 C        1603.7115   68.1540  -40.5667 C.3     817        0    0.0000
   4904 C        1602.5229   67.3344  -40.0523 C.3     817        0    0.0000
   4905 H        1604.4338   67.4965  -41.0662 H       817        0    0.0000
   4906 H        1604.2394   68.6202  -39.7254 H       817        0    0.0000
   4907 H        1601.7986   67.9925  -39.5566 H       817        0    0.0000
   4908 H        1601.9979   66.8647  -40.8933 H       817        0    0.0000
   4909 C        1602.9633   66.2175  -39.0443 C.3     818        0    0.0000
   4910 C        1601.7751   65.3950  -38.5334 C.3     818        0    0.0000
   4911 H        1603.6902   65.5613  -39.5390 H       818        0    0.0000
   4912 H        1603.4855   66.6875  -38.2017 H       818        0    0.0000
   4913 H        1601.0493   66.0509  -38.0372 H       818        0    0.0000
   4914 H        1601.2521   64.9264  -39.3762 H       818        0    0.0000
   4915 C        1602.2157   64.2764  -37.5274 C.3     819        0    0.0000
   4916 C        1601.0280   63.4520  -37.0188 C.3     819        0    0.0000
   4917 H        1602.9435   63.6217  -38.0228 H       819        0    0.0000
   4918 H        1602.7372   64.7451  -36.6835 H       819        0    0.0000
   4919 H        1600.2998   64.1068  -36.5243 H       819        0    0.0000
   4920 H        1600.5073   62.9824  -37.8625 H       819        0    0.0000
   4921 C        1601.4683   62.3344  -36.0115 C.3     820        0    0.0000
   4922 C        1600.2809   61.5076  -35.5058 C.3     820        0    0.0000
   4923 H        1602.1987   61.6812  -36.5051 H       820        0    0.0000
   4924 H        1601.9867   62.8043  -35.1665 H       820        0    0.0000
   4925 H        1599.5415   62.1635  -35.0300 H       820        0    0.0000
   4926 H        1599.7748   61.0216  -36.3491 H       820        0    0.0000
   4927 C        1600.7175   60.4084  -34.4770 C.3     821        0    0.0000
   4928 C        1599.5319   59.5739  -33.9803 C.3     821        0    0.0000
   4929 H        1601.4636   59.7577  -34.9500 H       821        0    0.0000
   4930 H        1601.2162   60.8952  -33.6297 H       821        0    0.0000
   4931 H        1598.8007   60.2202  -33.4792 H       821        0    0.0000
   4932 H        1599.0140   59.1126  -34.8305 H       821        0    0.0000
   4933 C        1599.9742   58.4458  -32.9858 C.3     822        0    0.0000
   4934 C        1598.7896   57.6065  -32.4950 C.3     822        0    0.0000
   4935 H        1600.7098   57.8027  -33.4851 H       822        0    0.0000
   4936 H        1600.4873   58.9075  -32.1329 H       822        0    0.0000
   4937 H        1598.0057   58.2608  -32.0940 H       822        0    0.0000
   4938 H        1598.3438   57.0584  -33.3342 H       822        0    0.0000
   4939 C        1599.2073   56.5802  -31.3862 C.3     823        0    0.0000
   4940 C        1598.0247   55.7333  -30.9032 C.3     823        0    0.0000
   4941 H        1599.9972   55.9311  -31.7846 H       823        0    0.0000
   4942 H        1599.6460   57.1290  -30.5436 H       823        0    0.0000
   4943 H        1598.3783   54.9430  -30.2295 H       823        0    0.0000
   4944 H        1597.3297   56.3537  -30.3240 H       823        0    0.0000
   4945 C        1597.2428   55.0726  -32.0905 C.3     824        0    0.0000
   4946 C        1596.0216   54.2795  -31.6120 C.3     824        0    0.0000
   4947 H        1596.9307   55.8587  -32.7893 H       824        0    0.0000
   4948 H        1597.9265   54.4148  -32.6415 H       824        0    0.0000
   4949 H        1595.2135   54.9664  -31.3317 H       824        0    0.0000
   4950 H        1595.6360   53.6550  -32.4271 H       824        0    0.0000
   4951 C        1596.3529   53.3616  -30.3852 C.3     825        0    0.0000
   4952 C        1595.1147   52.6289  -29.8569 C.3     825        0    0.0000
   4953 H        1597.1205   52.6366  -30.6832 H       825        0    0.0000
   4954 H        1596.7930   53.9777  -29.5912 H       825        0    0.0000
   4955 H        1594.4802   53.3223  -29.2912 H       825        0    0.0000
   4956 H        1594.5099   52.2602  -30.6946 H       825        0    0.0000
   4957 C        1595.4894   51.4189  -28.9333 C.3     826        0    0.0000
   4958 C        1594.4794   51.2204  -27.7977 C.3     826        0    0.0000
   4959 H        1595.5491   50.5112  -29.5465 H       826        0    0.0000
   4960 H        1596.4919   51.5865  -28.5201 H       826        0    0.0000
   4961 H        1594.5542   52.0461  -27.0792 H       826        0    0.0000
   4962 H        1593.4574   51.2406  -28.1954 H       826        0    0.0000
   4963 C        1594.6990   49.8674  -27.0370 C.3     827        0    0.0000
   4964 C        1593.3760   49.1898  -26.6633 C.3     827        0    0.0000
   4965 H        1595.2982   49.1999  -27.6686 H       827        0    0.0000
   4966 H        1595.2905   50.0615  -26.1337 H       827        0    0.0000
   4967 H        1592.7501   49.8803  -26.0843 H       827        0    0.0000
   4968 H        1592.8125   48.9391  -27.5705 H       827        0    0.0000
   4969 C        1593.5938   47.8825  -25.8261 C.3     828        0    0.0000
   4970 C        1592.3607   47.5132  -24.9941 C.3     828        0    0.0000
   4971 H        1593.8455   47.0624  -26.5101 H       828        0    0.0000
   4972 H        1594.4620   48.0231  -25.1702 H       828        0    0.0000
   4973 H        1592.0350   48.3767  -24.4009 H       828        0    0.0000
   4974 H        1591.5254   47.2519  -25.6552 H       828        0    0.0000
   4975 C        1592.6349   46.3104  -24.0269 C.3     829        0    0.0000
   4976 C        1591.3776   45.4718  -23.7718 C.3     829        0    0.0000
   4977 H        1593.4247   45.6827  -24.4584 H       829        0    0.0000
   4978 H        1593.0256   46.7008  -23.0790 H       829        0    0.0000
   4979 H        1590.5647   46.1134  -23.4099 H       829        0    0.0000
   4980 H        1591.0298   45.0209  -24.7094 H       829        0    0.0000
   4981 C        1591.6260   44.3321  -22.7246 C.3     830        0    0.0000
   4982 C        1590.3282   43.6280  -22.3134 C.3     830        0    0.0000
   4983 H        1592.3287   43.6060  -23.1522 H       830        0    0.0000
   4984 H        1592.1160   44.7629  -21.8426 H       830        0    0.0000
   4985 H        1589.6456   44.3442  -21.8399 H       830        0    0.0000
   4986 H        1589.8129   43.2409  -23.2011 H       830        0    0.0000
   4987 C        1590.5846   42.4421  -21.3207 C.3     831        0    0.0000
   4988 C        1589.3164   41.6238  -21.0534 C.3     831        0    0.0000
   4989 H        1591.3684   41.7964  -21.7360 H       831        0    0.0000
   4990 H        1590.9763   42.8472  -20.3794 H       831        0    0.0000
   4991 H        1588.5073   42.2835  -20.7164 H       831        0    0.0000
   4992 H        1588.9716   41.1507  -21.9812 H       831        0    0.0000
   4993 C        1589.5441   40.5110  -19.9731 C.3     832        0    0.0000
   4994 C        1588.2520   39.7612  -19.6302 C.3     832        0    0.0000
   4995 H        1590.3000   39.8076  -20.3438 H       832        0    0.0000
   4996 H        1589.9609   40.9745  -19.0703 H       832        0    0.0000
   4997 H        1587.5488   40.4351  -19.1252 H       832        0    0.0000
   4998 H        1587.7587   39.4223  -20.5496 H       832        0    0.0000
   4999 C        1588.5120   38.5197  -18.7092 C.3     833        0    0.0000
   5000 C        1587.2310   37.7270  -18.4274 C.3     833        0    0.0000
   5001 H        1589.2566   37.8728  -19.1895 H       833        0    0.0000
   5002 H        1588.9557   38.8650  -17.7671 H       833        0    0.0000
   5003 H        1586.4153   38.4117  -18.1640 H       833        0    0.0000
   5004 H        1586.9135   37.1917  -19.3308 H       833        0    0.0000
   5005 C        1587.4164   36.6913  -17.2654 C.3     834        0    0.0000
   5006 C        1586.1187   35.9432  -16.9412 C.3     834        0    0.0000
   5007 H        1588.2008   35.9785  -17.5488 H       834        0    0.0000
   5008 H        1587.7783   37.2201  -16.3748 H       834        0    0.0000
   5009 H        1585.6135   36.4175  -16.0907 H       834        0    0.0000
   5010 H        1585.4277   36.0030  -17.7913 H       834        0    0.0000
   5011 C        1586.3718   34.4341  -16.6011 C.3     835        0    0.0000
   5012 C        1585.0737   33.6854  -16.2793 C.3     835        0    0.0000
   5013 H        1586.8787   33.9602  -17.4510 H       835        0    0.0000
   5014 H        1587.0615   34.3743  -15.7500 H       835        0    0.0000
   5015 H        1584.3367   33.8519  -17.0745 H       835        0    0.0000
   5016 H        1585.2614   32.6051  -16.2447 H       835        0    0.0000
   5017 C        1584.4521   34.1344  -14.9120 C.3     836        0    0.0000
   5018 C        1583.1554   33.3840  -14.5890 C.3     836        0    0.0000
   5019 H        1585.1902   33.9697  -14.1171 H       836        0    0.0000
   5020 H        1584.2631   35.2145  -14.9473 H       836        0    0.0000
   5021 H        1582.5352   33.9805  -13.9085 H       836        0    0.0000
   5022 H        1582.5677   33.2374  -15.5038 H       836        0    0.0000
   5023 C        1583.4254   31.9864  -13.9325 C.3     837        0    0.0000
   5024 C        1582.3633   30.9498  -14.3155 C.3     837        0    0.0000
   5025 H        1584.4193   31.6376  -14.2395 H       837        0    0.0000
   5026 H        1583.4570   32.1078  -12.8428 H       837        0    0.0000
   5027 H        1581.3699   31.4150  -14.3246 H       837        0    0.0000
   5028 H        1582.5476   30.5803  -15.3319 H       837        0    0.0000
   5029 C        1582.3412   29.7303  -13.3308 C.3     838        0    0.0000
   5030 C        1580.9160   29.2573  -13.0239 C.3     838        0    0.0000
   5031 H        1582.9232   28.9106  -13.7700 H       838        0    0.0000
   5032 H        1582.8508   30.0162  -12.4022 H       838        0    0.0000
   5033 H        1580.2604   30.1212  -12.8581 H       838        0    0.0000
   5034 H        1580.5073   28.7121  -13.8836 H       838        0    0.0000
   5035 C        1580.8569   28.3288  -11.7621 C.3     839        0    0.0000
   5036 C        1579.9185   27.1339  -11.9636 C.3     839        0    0.0000
   5037 H        1581.8707   27.9767  -11.5345 H       839        0    0.0000
   5038 H        1580.5293   28.9234  -10.9005 H       839        0    0.0000
   5039 H        1578.9209   27.4843  -12.2562 H       839        0    0.0000
   5040 H        1580.2837   26.5028  -12.7833 H       839        0    0.0000
   5041 C        1579.7870   26.2571  -10.6709 C.3     840        0    0.0000
   5042 C        1578.5504   25.3524  -10.7059 C.3     840        0    0.0000
   5043 H        1580.6943   25.6500  -10.5615 H       840        0    0.0000
   5044 H        1579.7440   26.9193   -9.7972 H       840        0    0.0000
   5045 H        1577.6382   25.9621  -10.7103 H       840        0    0.0000
   5046 H        1578.5406   24.7643  -11.6320 H       840        0    0.0000
   5047 C        1578.4968   24.3718   -9.4840 C.3     841        0    0.0000
   5048 C        1577.4390   23.2773   -9.6636 C.3     841        0    0.0000
   5049 H        1579.4872   23.9192   -9.3501 H       841        0    0.0000
   5050 H        1578.2892   24.9502   -8.5753 H       841        0    0.0000
   5051 H        1576.4794   23.7252   -9.9504 H       841        0    0.0000
   5052 H        1577.7290   22.6042  -10.4798 H       841        0    0.0000
   5053 C        1577.2322   22.4314   -8.3601 C.3     842        0    0.0000
   5054 C        1576.0398   21.4750   -8.4713 C.3     842        0    0.0000
   5055 H        1578.1501   21.8661   -8.1562 H       842        0    0.0000
   5056 H        1577.0887   23.1148   -7.5140 H       842        0    0.0000
   5057 H        1575.1038   22.0450   -8.5187 H       842        0    0.0000
   5058 H        1576.1055   20.8988   -9.4025 H       842        0    0.0000
   5059 C        1575.9635   20.4776   -7.2642 C.3     843        0    0.0000
   5060 C        1574.8625   19.4271   -7.4473 C.3     843        0    0.0000
   5061 H        1576.9376   19.9858   -7.1499 H       843        0    0.0000
   5062 H        1575.7892   21.0488   -6.3440 H       843        0    0.0000
   5063 H        1573.9724   19.8890   -7.8916 H       843        0    0.0000
   5064 H        1575.1967   18.6502   -8.1461 H       843        0    0.0000
   5065 C        1574.4575   18.7488   -6.0934 C.3     844        0    0.0000
   5066 C        1573.3560   17.6989   -6.2764 C.3     844        0    0.0000
   5067 H        1575.3479   18.2865   -5.6492 H       844        0    0.0000
   5068 H        1574.1243   19.5258   -5.3943 H       844        0    0.0000
   5069 H        1572.3829   18.1914   -6.3943 H       844        0    0.0000
   5070 H        1573.5321   17.1252   -7.1947 H       844        0    0.0000
   5071 C        1573.2760   16.7047   -5.0670 C.3     845        0    0.0000
   5072 C        1572.2480   15.5914   -5.2972 C.3     845        0    0.0000
   5073 H        1574.2695   16.2705   -4.8998 H       845        0    0.0000
   5074 H        1573.0226   17.2694   -4.1612 H       845        0    0.0000
   5075 H        1571.4196   15.9656   -5.9114 H       845        0    0.0000
   5076 H        1572.7064   14.7658   -5.8556 H       845        0    0.0000
   5077 C        1571.6676   15.0315   -3.9529 C.3     846        0    0.0000
   5078 C        1570.6168   13.9399   -4.1839 C.3     846        0    0.0000
   5079 H        1572.4937   14.6366   -3.3485 H       846        0    0.0000
   5080 H        1571.2296   15.8610   -3.3842 H       846        0    0.0000
   5081 H        1569.6095   14.3720   -4.1387 H       846        0    0.0000
   5082 H        1570.7319   13.5134   -5.1881 H       846        0    0.0000
   5083 C        1570.7189   12.7845   -3.1294 C.3     847        0    0.0000
   5084 C        1569.6987   11.6704   -3.3879 C.3     847        0    0.0000
   5085 H        1571.7363   12.3750   -3.1507 H       847        0    0.0000
   5086 H        1570.5699   13.2059   -2.1275 H       847        0    0.0000
   5087 H        1569.6436   11.4526   -4.4619 H       847        0    0.0000
   5088 H        1570.0197   10.7444   -2.8949 H       847        0    0.0000
   5089 C        1568.2659   12.0458   -2.8745 C.3     848        0    0.0000
   5090 C        1567.2794   10.8795   -3.0010 C.3     848        0    0.0000
   5091 H        1568.3381   12.3656   -1.8275 H       848        0    0.0000
   5092 H        1567.9015   12.9100   -3.4435 H       848        0    0.0000
   5093 H        1566.3129   11.1550   -2.5613 H       848        0    0.0000
   5094 H        1567.0925   10.6580   -4.0591 H       848        0    0.0000
   5095 C        1567.8025    9.5801   -2.2974 C.3     849        0    0.0000
   5096 C        1566.8865    8.3764   -2.5452 C.3     849        0    0.0000
   5097 H        1568.8146    9.3638   -2.6614 H       849        0    0.0000
   5098 H        1567.8893    9.7714   -1.2206 H       849        0    0.0000
   5099 H        1566.2660    8.5523   -3.4326 H       849        0    0.0000
   5100 H        1567.4878    7.4828   -2.7532 H       849        0    0.0000
   5101 C        1565.9491    8.0817   -1.3238 C.3     850        0    0.0000
   5102 C        1565.0391    6.8729   -1.5682 C.3     850        0    0.0000
   5103 H        1566.5695    7.9120   -0.4349 H       850        0    0.0000
   5104 H        1565.3435    8.9734   -1.1196 H       850        0    0.0000
   5105 H        1564.0531    7.2080   -1.9134 H       850        0    0.0000
   5106 H        1565.4551    6.2441   -2.3652 H       850        0    0.0000
   5107 C        1564.8533    5.9990   -0.2801 C.3     851        0    0.0000
   5108 C        1564.0466    4.7249   -0.5540 C.3     851        0    0.0000
   5109 H        1565.8427    5.7399    0.1171 H       851        0    0.0000
   5110 H        1564.3539    6.6027    0.4878 H       851        0    0.0000
   5111 H        1564.3580    4.2801   -1.5072 H       851        0    0.0000
   5112 H        1564.2484    3.9774    0.2232 H       851        0    0.0000
   5113 C        1562.5037    4.9979   -0.6040 C.3     852        0    0.0000
   5114 C        1561.6892    3.7062   -0.7362 C.3     852        0    0.0000
   5115 H        1562.2101    5.5361    0.3058 H       852        0    0.0000
   5116 H        1562.2899    5.6655   -1.4479 H       852        0    0.0000
   5117 H        1560.6167    3.9314   -0.6875 H       852        0    0.0000
   5118 H        1561.8704    3.2461   -1.7156 H       852        0    0.0000
   5119 C        1562.0388    2.6664    0.3832 C.3     853        0    0.0000
   5120 C        1561.3569    1.3132    0.1524 C.3     853        0    0.0000
   5121 H        1563.1277    2.5377    0.4188 H       853        0    0.0000
   5122 H        1561.7384    3.0781    1.3547 H       853        0    0.0000
   5123 H        1561.2112    1.1437   -0.9215 H       853        0    0.0000
   5124 H        1561.9995    0.5015    0.5153 H       853        0    0.0000
   5125 C        1559.9674    1.2177    0.8722 C.3     854        0    0.0000
   5126 C        1559.3207   -0.1618    0.7055 C.3     854        0    0.0000
   5127 H        1560.1047    1.4426    1.9372 H       854        0    0.0000
   5128 H        1559.3062    1.9945    0.4688 H       854        0    0.0000
   5129 H        1558.2598   -0.1155    0.9807 H       854        0    0.0000
   5130 H        1559.3602   -0.4711   -0.3463 H       854        0    0.0000
   5131 C        1560.0226   -1.2565    1.5809 C.3     855        0    0.0000
   5132 C        1559.3058   -2.6091    1.5043 C.3     855        0    0.0000
   5133 H        1561.0625   -1.3625    1.2479 H       855        0    0.0000
   5134 H        1560.0588   -0.9084    2.6207 H       855        0    0.0000
   5135 H        1559.4122   -3.0348    0.4989 H       855        0    0.0000
   5136 H        1559.7697   -3.3206    2.1986 H       855        0    0.0000
   5137 C        1557.7798   -2.4930    1.8448 C.3     856        0    0.0000
   5138 C        1557.0292   -3.8075    1.6045 C.3     856        0    0.0000
   5139 H        1557.6737   -2.1854    2.8925 H       856        0    0.0000
   5140 H        1557.3416   -1.6927    1.2357 H       856        0    0.0000
   5141 H        1556.7610   -3.8991    0.5446 H       856        0    0.0000
   5142 H        1557.6787   -4.6598    1.8398 H       856        0    0.0000
   5143 C        1555.7245   -3.9130    2.4669 C.3     857        0    0.0000
   5144 C        1554.9650   -5.2198    2.2137 C.3     857        0    0.0000
   5145 H        1555.9943   -3.8340    3.5274 H       857        0    0.0000
   5146 H        1555.0808   -3.0538    2.2408 H       857        0    0.0000
   5147 H        1554.1664   -5.3408    2.9561 H       857        0    0.0000
   5148 H        1554.4791   -5.1881    1.2306 H       857        0    0.0000
   5149 C        1555.9039   -6.4736    2.2729 C.3     858        0    0.0000
   5150 C        1555.1904   -7.7551    1.8281 C.3     858        0    0.0000
   5151 H        1556.7792   -6.2905    1.6374 H       858        0    0.0000
   5152 H        1556.2775   -6.5876    3.2982 H       858        0    0.0000
   5153 H        1554.8678   -7.6629    0.7837 H       858        0    0.0000
   5154 H        1555.8827   -8.6051    1.8702 H       858        0    0.0000
   5155 C        1553.9397   -8.0777    2.7165 C.3     859        0    0.0000
   5156 C        1553.2015   -9.3358    2.2458 C.3     859        0    0.0000
   5157 H        1554.2668   -8.2006    3.7565 H       859        0    0.0000
   5158 H        1553.2618   -7.2154    2.6993 H       859        0    0.0000
   5159 H        1552.7350   -9.1548    1.2696 H       859        0    0.0000
   5160 H        1553.9130  -10.1594    2.1070 H       859        0    0.0000
   5161 C        1552.0948   -9.7894    3.2588 C.3     860        0    0.0000
   5162 C        1551.2253  -10.9214    2.7007 C.3     860        0    0.0000
   5163 H        1552.5779  -10.1103    4.1900 H       860        0    0.0000
   5164 H        1551.4696   -8.9238    3.5104 H       860        0    0.0000
   5165 H        1550.5026  -10.5200    1.9796 H       860        0    0.0000
   5166 H        1551.8488  -11.6404    2.1549 H       860        0    0.0000
   5167 C        1550.4452  -11.6822    3.8277 C.3     861        0    0.0000
   5168 C        1549.7778  -12.9613    3.3103 C.3     861        0    0.0000
   5169 H        1551.1426  -11.9239    4.6394 H       861        0    0.0000
   5170 H        1549.6899  -11.0088    4.2514 H       861        0    0.0000
   5171 H        1549.5071  -12.8432    2.2538 H       861        0    0.0000
   5172 H        1550.4822  -13.8008    3.3631 H       861        0    0.0000
   5173 C        1548.4897  -13.3303    4.1240 C.3     862        0    0.0000
   5174 C        1547.8315  -14.6182    3.6169 C.3     862        0    0.0000
   5175 H        1548.7584  -13.4367    5.1823 H       862        0    0.0000
   5176 H        1547.7808  -12.4956    4.0614 H       862        0    0.0000
   5177 H        1547.0813  -14.3814    2.8523 H       862        0    0.0000
   5178 H        1548.5807  -15.2591    3.1355 H       862        0    0.0000
   5179 C        1547.1410  -15.4260    4.7693 C.3     863        0    0.0000
   5180 C        1546.5175  -16.7338    4.2691 C.3     863        0    0.0000
   5181 H        1547.8844  -15.6374    5.5478 H       863        0    0.0000
   5182 H        1546.3716  -14.7952    5.2314 H       863        0    0.0000
   5183 H        1547.0743  -17.1083    3.4013 H       863        0    0.0000
   5184 H        1546.5885  -17.5054    5.0459 H       863        0    0.0000
   5185 C        1545.0125  -16.5588    3.8669 C.3     864        0    0.0000
   5186 C        1544.3217  -17.9015    3.6041 C.3     864        0    0.0000
   5187 H        1544.4929  -16.0188    4.6681 H       864        0    0.0000
   5188 H        1544.9569  -15.9258    2.9726 H       864        0    0.0000
   5189 H        1543.2642  -17.7393    3.3610 H       864        0    0.0000
   5190 H        1544.7734  -18.3929    2.7335 H       864        0    0.0000
   5191 C        1544.4147  -18.8682    4.8347 C.3     865        0    0.0000
   5192 C        1543.8132  -20.2462    4.5375 C.3     865        0    0.0000
   5193 H        1545.4678  -18.9718    5.1241 H       865        0    0.0000
   5194 H        1543.8978  -18.4079    5.6859 H       865        0    0.0000
   5195 H        1544.1217  -20.5842    3.5406 H       865        0    0.0000
   5196 H        1544.1948  -20.9854    5.2528 H       865        0    0.0000
   5197 C        1542.2471  -20.2383    4.6064 C.3     866        0    0.0000
   5198 C        1541.6461  -21.6186    4.3195 C.3     866        0    0.0000
   5199 H        1541.9387  -19.8931    5.6010 H       866        0    0.0000
   5200 H        1541.8651  -19.5045    3.8858 H       866        0    0.0000
   5201 H        1540.7695  -21.5190    3.6673 H       866        0    0.0000
   5202 H        1542.3713  -22.2400    3.7797 H       866        0    0.0000
   5203 C        1541.2185  -22.3646    5.6304 C.3     867        0    0.0000
   5204 C        1540.5166  -23.6955    5.3387 C.3     867        0    0.0000
   5205 H        1542.1100  -22.5364    6.2462 H       867        0    0.0000
   5206 H        1540.5565  -21.7094    6.2103 H       867        0    0.0000
   5207 H        1541.2290  -24.4100    4.9082 H       867        0    0.0000
   5208 H        1540.1499  -24.1399    6.2723 H       867        0    0.0000
   5209 C        1539.3105  -23.5271    4.3514 C.3     868        0    0.0000
   5210 C        1538.5159  -24.8262    4.1785 C.3     868        0    0.0000
   5211 H        1538.6545  -22.7320    4.7268 H       868        0    0.0000
   5212 H        1539.6929  -23.1880    3.3806 H       868        0    0.0000
   5213 H        1537.8250  -24.9595    5.0203 H       868        0    0.0000
   5214 H        1537.9009  -24.7732    3.2715 H       868        0    0.0000
   5215 C        1539.4468  -26.0841    4.0850 C.3     869        0    0.0000
   5216 C        1538.6619  -27.3965    4.1886 C.3     869        0    0.0000
   5217 H        1539.9956  -26.0480    3.1358 H       869        0    0.0000
   5218 H        1540.1960  -26.0297    4.8844 H       869        0    0.0000
   5219 H        1539.0427  -28.1211    3.4586 H       869        0    0.0000
   5220 H        1538.8049  -27.8431    5.1803 H       869        0    0.0000
   5221 C        1537.1270  -27.1916    3.9436 C.3     870        0    0.0000
   5222 C        1536.3058  -28.4229    4.3420 C.3     870        0    0.0000
   5223 H        1536.7919  -26.3157    4.5128 H       870        0    0.0000
   5224 H        1536.9661  -26.9590    2.8835 H       870        0    0.0000
   5225 H        1536.9500  -29.3103    4.3740 H       870        0    0.0000
   5226 H        1535.8984  -28.2926    5.3522 H       870        0    0.0000
   5227 C        1535.1218  -28.6934    3.3509 C.3     871        0    0.0000
   5228 C        1534.3695  -29.9866    3.6838 C.3     871        0    0.0000
   5229 H        1534.4335  -27.8396    3.3806 H       871        0    0.0000
   5230 H        1535.5195  -28.7419    2.3296 H       871        0    0.0000
   5231 H        1533.2914  -29.7914    3.7379 H       871        0    0.0000
   5232 H        1534.5165  -30.7237    2.8847 H       871        0    0.0000
   5233 C        1534.8379  -30.6136    5.0419 C.3     872        0    0.0000
   5234 C        1534.2274  -31.9986    5.2835 C.3     872        0    0.0000
   5235 H        1535.9330  -30.6802    5.0417 H       872        0    0.0000
   5236 H        1534.5636  -29.9341    5.8583 H       872        0    0.0000
   5237 H        1534.6925  -32.7360    4.6179 H       872        0    0.0000
   5238 H        1534.4333  -32.3265    6.3100 H       872        0    0.0000
   5239 C        1532.6774  -32.0136    5.0497 C.3     873        0    0.0000
   5240 C        1532.1343  -33.4325    4.8470 C.3     873        0    0.0000
   5241 H        1532.1855  -31.5418    5.9093 H       873        0    0.0000
   5242 H        1532.4457  -31.3936    4.1748 H       873        0    0.0000
   5243 H        1532.3949  -33.7955    3.8451 H       873        0    0.0000
   5244 H        1532.6019  -34.1200    5.5627 H       873        0    0.0000
   5245 C        1530.5779  -33.5034    5.0212 C.3     874        0    0.0000
   5246 C        1530.0463  -34.9368    4.9135 C.3     874        0    0.0000
   5247 H        1530.3114  -33.0754    5.9955 H       874        0    0.0000
   5248 H        1530.1077  -32.8694    4.2593 H       874        0    0.0000
   5249 H        1530.1487  -35.2997    3.8834 H       874        0    0.0000
   5250 H        1530.6423  -35.6075    5.5447 H       874        0    0.0000
   5251 C        1528.5417  -35.0459    5.3402 C.3     875        0    0.0000
   5252 C        1527.9994  -36.4721    5.1967 C.3     875        0    0.0000
   5253 H        1528.4437  -34.7089    6.3796 H       875        0    0.0000
   5254 H        1527.9496  -34.3547    4.7278 H       875        0    0.0000
   5255 H        1528.4493  -37.1239    5.9558 H       875        0    0.0000
   5256 H        1526.9169  -36.4826    5.3739 H       875        0    0.0000
   5257 C        1528.2850  -37.0763    3.7786 C.3     876        0    0.0000
   5258 C        1527.6416  -38.4551    3.5943 C.3     876        0    0.0000
   5259 H        1527.9108  -36.3817    3.0164 H       876        0    0.0000
   5260 H        1529.3706  -37.1456    3.6358 H       876        0    0.0000
   5261 H        1526.8453  -38.4010    2.8416 H       876        0    0.0000
   5262 H        1528.3839  -39.1693    3.2168 H       876        0    0.0000
   5263 C        1527.0378  -39.0123    4.9294 C.3     877        0    0.0000
   5264 C        1526.0331  -40.1436    4.6850 C.3     877        0    0.0000
   5265 H        1527.8571  -39.3678    5.5667 H       877        0    0.0000
   5266 H        1526.5535  -38.1891    5.4690 H       877        0    0.0000
   5267 H        1525.2556  -39.8117    3.9857 H       877        0    0.0000
   5268 H        1526.5358  -40.9980    4.2150 H       877        0    0.0000
   5269 C        1525.3483  -40.6264    6.0099 C.3     878        0    0.0000
   5270 C        1524.5311  -41.9074    5.8080 C.3     878        0    0.0000
   5271 H        1526.1230  -40.7902    6.7691 H       878        0    0.0000
   5272 H        1524.7023  -39.8238    6.3869 H       878        0    0.0000
   5273 H        1525.1587  -42.6871    5.3590 H       878        0    0.0000
   5274 H        1524.1930  -42.2945    6.7773 H       878        0    0.0000
   5275 C        1523.2800  -41.6759    4.8923 C.3     879        0    0.0000
   5276 C        1522.6252  -42.9924    4.4599 C.3     879        0    0.0000
   5277 H        1522.5554  -41.0555    5.4338 H       879        0    0.0000
   5278 H        1523.5890  -41.1018    4.0099 H       879        0    0.0000
   5279 H        1521.9821  -42.8237    3.5873 H       879        0    0.0000
   5280 H        1523.3940  -43.7112    4.1504 H       879        0    0.0000
   5281 C        1521.7664  -43.6327    5.6042 C.3     880        0    0.0000
   5282 C        1521.3413  -45.0686    5.2775 C.3     880        0    0.0000
   5283 H        1522.3474  -43.6151    6.5347 H       880        0    0.0000
   5284 H        1520.8810  -43.0077    5.7740 H       880        0    0.0000
   5285 H        1522.0806  -45.5386    4.6173 H       880        0    0.0000
   5286 H        1521.3107  -45.6698    6.1947 H       880        0    0.0000
   5287 C        1519.9355  -45.1294    4.5862 C.3     881        0    0.0000
   5288 C        1519.3275  -46.5356    4.6291 C.3     881        0    0.0000
   5289 H        1519.2666  -44.4150    5.0819 H       881        0    0.0000
   5290 H        1520.0382  -44.7955    3.5463 H       881        0    0.0000
   5291 H        1518.7092  -46.6508    5.5280 H       881        0    0.0000
   5292 H        1518.6635  -46.6847    3.7687 H       881        0    0.0000
   5293 C        1520.4230  -47.6569    4.6223 C.3     882        0    0.0000
   5294 C        1519.8142  -49.0634    4.6044 C.3     882        0    0.0000
   5295 H        1521.0685  -47.5153    3.7467 H       882        0    0.0000
   5296 H        1521.0602  -47.5341    5.5068 H       882        0    0.0000
   5297 H        1520.0992  -49.5850    3.6825 H       882        0    0.0000
   5298 H        1520.2115  -49.6561    5.4376 H       882        0    0.0000
   5299 C        1518.2499  -49.0350    4.7056 C.3     883        0    0.0000
   5300 C        1517.6627  -50.4163    5.0163 C.3     883        0    0.0000
   5301 H        1517.9589  -48.3188    5.4840 H       883        0    0.0000
   5302 H        1517.8411  -48.6564    3.7604 H       883        0    0.0000
   5303 H        1517.8777  -51.1099    4.1940 H       883        0    0.0000
   5304 H        1518.1375  -50.8337    5.9128 H       883        0    0.0000
   5305 C        1516.1123  -50.3655    5.2427 C.3     884        0    0.0000
   5306 C        1515.4250  -51.6786    4.8521 C.3     884        0    0.0000
   5307 H        1515.9163  -50.1377    6.2977 H       884        0    0.0000
   5308 H        1515.6967  -49.5352    4.6586 H       884        0    0.0000
   5309 H        1515.5587  -51.8687    3.7799 H       884        0    0.0000
   5310 H        1515.8909  -52.5190    5.3815 H       884        0    0.0000
   5311 C        1513.8912  -51.6654    5.1756 C.3     885        0    0.0000
   5312 C        1513.2572  -53.0542    5.0404 C.3     885        0    0.0000
   5313 H        1513.7479  -51.2841    6.1942 H       885        0    0.0000
   5314 H        1513.3937  -50.9575    4.5013 H       885        0    0.0000
   5315 H        1513.9777  -53.8270    5.3358 H       885        0    0.0000
   5316 H        1512.4014  -53.1449    5.7206 H       885        0    0.0000
   5317 C        1512.7736  -53.3466    3.5783 C.3     886        0    0.0000
   5318 C        1512.1228  -54.7280    3.4472 C.3     886        0    0.0000
   5319 H        1512.0635  -52.5662    3.2781 H       886        0    0.0000
   5320 H        1513.6321  -53.2693    2.8998 H       886        0    0.0000
   5321 H        1511.6637  -54.8352    2.4566 H       886        0    0.0000
   5322 H        1512.8855  -55.5124    3.5275 H       886        0    0.0000
   5323 C        1511.0272  -54.9748    4.5411 C.3     887        0    0.0000
   5324 C        1510.4996  -56.4137    4.5206 C.3     887        0    0.0000
   5325 H        1511.4524  -54.7440    5.5256 H       887        0    0.0000
   5326 H        1510.2024  -54.2694    4.3808 H       887        0    0.0000
   5327 H        1511.2189  -57.0709    4.0165 H       887        0    0.0000
   5328 H        1510.3938  -56.7900    5.5457 H       887        0    0.0000
   5329 C        1509.1150  -56.5285    3.7948 C.3     888        0    0.0000
   5330 C        1508.3802  -57.8264    4.1476 C.3     888        0    0.0000
   5331 H        1508.4999  -55.6620    4.0674 H       888        0    0.0000
   5332 H        1509.2780  -56.4709    2.7114 H       888        0    0.0000
   5333 H        1508.2334  -57.8925    5.2329 H       888        0    0.0000
   5334 H        1507.3815  -57.8287    3.6936 H       888        0    0.0000
   5335 C        1509.1576  -59.0992    3.6647 C.3     889        0    0.0000
   5336 C        1508.4021  -60.3952    3.9787 C.3     889        0    0.0000
   5337 H        1509.3325  -59.0181    2.5847 H       889        0    0.0000
   5338 H        1510.1445  -59.1136    4.1435 H       889        0    0.0000
   5339 H        1508.1580  -60.9231    3.0485 H       889        0    0.0000
   5340 H        1509.0385  -61.0689    4.5657 H       889        0    0.0000
   5341 C        1507.0767  -60.1325    4.7736 C.3     890        0    0.0000
   5342 C        1506.0835  -61.2931    4.6467 C.3     890        0    0.0000
   5343 H        1507.3245  -59.9632    5.8287 H       890        0    0.0000
   5344 H        1506.6207  -59.2053    4.4045 H       890        0    0.0000
   5345 H        1506.6222  -62.2487    4.6274 H       890        0    0.0000
   5346 H        1505.4237  -61.3209    5.5227 H       890        0    0.0000
   5347 C        1505.2032  -61.1832    3.3543 C.3     891        0    0.0000
   5348 C        1504.1042  -62.2506    3.3075 C.3     891        0    0.0000
   5349 H        1504.7568  -60.1819    3.3144 H       891        0    0.0000
   5350 H        1505.8531  -61.2737    2.4750 H       891        0    0.0000
   5351 H        1503.2405  -61.9273    3.9017 H       891        0    0.0000
   5352 H        1503.7483  -62.3789    2.2779 H       891        0    0.0000
   5353 C        1504.5988  -63.6366    3.8478 C.3     892        0    0.0000
   5354 C        1503.4369  -64.5850    4.1634 C.3     892        0    0.0000
   5355 H        1505.2627  -64.0904    3.1018 H       892        0    0.0000
   5356 H        1505.2035  -63.4700    4.7479 H       892        0    0.0000
   5357 H        1503.8237  -65.5583    4.4898 H       892        0    0.0000
   5358 H        1502.8420  -64.1874    4.9949 H       892        0    0.0000
   5359 C        1502.4961  -64.8036    2.9285 C.3     893        0    0.0000
   5360 C        1501.4270  -65.8691    3.1941 C.3     893        0    0.0000
   5361 H        1502.0203  -63.8487    2.6730 H       893        0    0.0000
   5362 H        1503.1079  -65.0918    2.0646 H       893        0    0.0000
   5363 H        1500.4438  -65.5041    2.8718 H       893        0    0.0000
   5364 H        1501.6379  -66.7691    2.6032 H       893        0    0.0000
   5365 C        1501.3472  -66.2663    4.7084 C.3     894        0    0.0000
   5366 C        1500.4342  -67.4745    4.9446 C.3     894        0    0.0000
   5367 H        1502.3595  -66.4831    5.0710 H       894        0    0.0000
   5368 H        1500.9852  -65.4037    5.2816 H       894        0    0.0000
   5369 H        1500.9154  -68.3879    4.5737 H       894        0    0.0000
   5370 H        1500.2715  -67.6184    6.0200 H       894        0    0.0000
   5371 C        1499.0428  -67.3145    4.2402 C.3     895        0    0.0000
   5372 C        1498.4423  -68.6630    3.8279 C.3     895        0    0.0000
   5373 H        1498.3601  -66.7909    4.9207 H       895        0    0.0000
   5374 H        1499.1642  -66.6717    3.3595 H       895        0    0.0000
   5375 H        1498.6632  -68.8663    2.7727 H       895        0    0.0000
   5376 H        1498.9021  -69.4727    4.4079 H       895        0    0.0000
   5377 C        1496.8893  -68.7104    4.0373 C.3     896        0    0.0000
   5378 C        1496.3492  -70.1447    4.0552 C.3     896        0    0.0000
   5379 H        1496.6439  -68.2043    4.9791 H       896        0    0.0000
   5380 H        1496.4070  -68.1367    3.2362 H       896        0    0.0000
   5381 H        1496.9484  -70.7806    3.3917 H       896        0    0.0000
   5382 H        1496.4393  -70.5681    5.0632 H       896        0    0.0000
   5383 C        1494.8486  -70.2201    3.6078 C.3     897        0    0.0000
   5384 C        1494.3784  -71.6629    3.3928 C.3     897        0    0.0000
   5385 H        1494.2277  -69.7316    4.3689 H       897        0    0.0000
   5386 H        1494.7260  -69.6427    2.6830 H       897        0    0.0000
   5387 H        1493.3314  -71.7676    3.7033 H       897        0    0.0000
   5388 H        1494.4176  -71.9163    2.3261 H       897        0    0.0000
   5389 C        1495.2474  -72.6959    4.1897 C.3     898        0    0.0000
   5390 C        1494.9243  -74.1445    3.8069 C.3     898        0    0.0000
   5391 H        1496.3076  -72.4849    4.0026 H       898        0    0.0000
   5392 H        1495.0808  -72.5445    5.2634 H       898        0    0.0000
   5393 H        1495.0872  -74.2950    2.7326 H       898        0    0.0000
   5394 H        1495.6028  -74.8314    4.3278 H       898        0    0.0000
   5395 C        1493.4460  -74.5349    4.1535 C.3     899        0    0.0000
   5396 C        1492.8718  -75.5633    3.1728 C.3     899        0    0.0000
   5397 H        1493.4155  -74.9321    5.1757 H       899        0    0.0000
   5398 H        1492.8303  -73.6270    4.1498 H       899        0    0.0000
   5399 H        1492.5273  -75.0613    2.2602 H       899        0    0.0000
   5400 H        1493.6538  -76.2697    2.8677 H       899        0    0.0000
   5401 C        1491.6760  -76.3685    3.7888 C.3     900        0    0.0000
   5402 C        1490.5741  -76.6490    2.7612 C.3     900        0    0.0000
   5403 H        1492.0583  -77.3120    4.1975 H       900        0    0.0000
   5404 H        1491.2666  -75.8019    4.6342 H       900        0    0.0000
   5405 H        1490.3000  -75.7228    2.2410 H       900        0    0.0000
   5406 H        1490.9417  -77.3435    1.9956 H       900        0    0.0000
   5407 C        1489.2885  -77.2577    3.4200 C.3     901        0    0.0000
   5408 C        1488.7875  -78.5007    2.6762 C.3     901        0    0.0000
   5409 H        1489.5115  -77.5088    4.4644 H       901        0    0.0000
   5410 H        1488.5046  -76.4905    3.4408 H       901        0    0.0000
   5411 H        1488.4894  -78.2332    1.6549 H       901        0    0.0000
   5412 H        1489.5964  -79.2364    2.5858 H       901        0    0.0000
   5413 C        1487.5699  -79.1745    3.3979 C.3     902        0    0.0000
   5414 C        1486.9810  -80.3325    2.5848 C.3     902        0    0.0000
   5415 H        1487.8965  -79.5336    4.3818 H       902        0    0.0000
   5416 H        1486.8011  -78.4133    3.5797 H       902        0    0.0000
   5417 H        1486.6378  -79.9699    1.6079 H       902        0    0.0000
   5418 H        1487.7542  -81.0853    2.3877 H       902        0    0.0000
   5419 C        1485.7794  -81.0226    3.3181 C.3     903        0    0.0000
   5420 C        1485.0692  -82.0497    2.4295 C.3     903        0    0.0000
   5421 H        1486.1521  -81.5071    4.2290 H       903        0    0.0000
   5422 H        1485.0706  -80.2496    3.6400 H       903        0    0.0000
   5423 H        1484.6661  -81.5585    1.5352 H       903        0    0.0000
   5424 H        1485.7854  -82.8033    2.0792 H       903        0    0.0000
   5425 C        1483.8987  -82.7749    3.1787 C.3     904        0    0.0000
   5426 C        1483.1779  -83.7902    2.2850 C.3     904        0    0.0000
   5427 H        1484.3038  -83.2762    4.0664 H       904        0    0.0000
   5428 H        1483.1887  -82.0205    3.5395 H       904        0    0.0000
   5429 H        1482.7749  -83.2893    1.3960 H       904        0    0.0000
   5430 H        1483.8872  -84.5461    1.9263 H       904        0    0.0000
   5431 C        1482.0048  -84.5127    3.0331 C.3     905        0    0.0000
   5432 C        1481.2804  -85.5240    2.1377 C.3     905        0    0.0000
   5433 H        1482.4084  -85.0169    3.9199 H       905        0    0.0000
   5434 H        1481.2974  -83.7565    3.3952 H       905        0    0.0000
   5435 H        1480.8755  -85.0195    1.2517 H       905        0    0.0000
   5436 H        1481.9883  -86.2792    1.7742 H       905        0    0.0000
   5437 C        1480.1090  -86.2482    2.8865 C.3     906        0    0.0000
   5438 C        1479.3833  -87.2579    1.9905 C.3     906        0    0.0000
   5439 H        1480.5143  -86.7541    3.7716 H       906        0    0.0000
   5440 H        1479.4020  -85.4929    3.2514 H       906        0    0.0000
   5441 H        1478.9651  -86.7495    1.1129 H       906        0    0.0000
   5442 H        1480.0931  -88.0046    1.6134 H       906        0    0.0000
   5443 C        1478.2253  -87.9975    2.7454 C.3     907        0    0.0000
   5444 C        1477.4725  -88.9765    1.8378 C.3     907        0    0.0000
   5445 H        1478.6484  -88.5312    3.6056 H       907        0    0.0000
   5446 H        1477.5319  -87.2493    3.1489 H       907        0    0.0000
   5447 H        1477.0459  -88.4421    0.9800 H       907        0    0.0000
   5448 H        1478.1667  -89.7222    1.4310 H       907        0    0.0000
   5449 C        1476.3185  -89.7204    2.5943 C.3     908        0    0.0000
   5450 C        1475.5621  -90.6955    1.6853 C.3     908        0    0.0000
   5451 H        1476.7457  -90.2581    3.4499 H       908        0    0.0000
   5452 H        1475.6263  -88.9747    3.0045 H       908        0    0.0000
   5453 H        1475.1311  -90.1571    0.8323 H       908        0    0.0000
   5454 H        1476.2551  -91.4384    1.2714 H       908        0    0.0000
   5455 C        1474.4125  -91.4444    2.4435 C.3     909        0    0.0000
   5456 C        1473.6453  -92.4069    1.5304 C.3     909        0    0.0000
   5457 H        1474.8453  -91.9928    3.2893 H       909        0    0.0000
   5458 H        1473.7263  -90.7012    2.8681 H       909        0    0.0000
   5459 H        1473.2090  -91.8578    0.6868 H       909        0    0.0000
   5460 H        1474.3323  -93.1476    1.1026 H       909        0    0.0000
   5461 C        1472.4994  -93.1601    2.2900 C.3     910        0    0.0000
   5462 C        1471.7212  -94.1100    1.3728 C.3     910        0    0.0000
   5463 H        1472.9375  -93.7193    3.1260 H       910        0    0.0000
   5464 H        1471.8193  -92.4193    2.7284 H       910        0    0.0000
   5465 H        1471.2864  -93.5515    0.5346 H       910        0    0.0000
   5466 H        1472.4006  -94.8533    0.9376 H       910        0    0.0000
   5467 C        1470.5715  -94.8590    2.1312 C.3     911        0    0.0000
   5468 C        1469.7960  -95.8119    1.2150 C.3     911        0    0.0000
   5469 H        1471.0059  -95.4151    2.9712 H       911        0    0.0000
   5470 H        1469.8906  -94.1157    2.5639 H       911        0    0.0000
   5471 H        1469.3689  -95.2572    0.3703 H       911        0    0.0000
   5472 H        1470.4756  -96.5605    0.7891 H       911        0    0.0000
   5473 C        1468.6387  -96.5518    1.9704 C.3     912        0    0.0000
   5474 C        1467.8608  -97.5020    1.0533 C.3     912        0    0.0000
   5475 H        1469.0658  -97.1086    2.8135 H       912        0    0.0000
   5476 H        1467.9607  -95.8031    2.3986 H       912        0    0.0000
   5477 H        1467.4385  -96.9461    0.2070 H       912        0    0.0000
   5478 H        1468.5377  -98.2542    0.6298 H       912        0    0.0000
   5479 C        1466.6981  -98.2355    1.8067 C.3     913        0    0.0000
   5480 C        1465.9158  -99.1802    0.8878 C.3     913        0    0.0000
   5481 H        1467.1210  -98.7957    2.6498 H       913        0    0.0000
   5482 H        1466.0240  -97.4832    2.2347 H       913        0    0.0000
   5483 H        1465.4921  -98.6199    0.0451 H       913        0    0.0000
   5484 H        1466.5898  -99.9321    0.4592 H       913        0    0.0000
   5485 C        1464.7535  -99.9145    1.6414 C.3     914        0    0.0000
   5486 C        1463.9651 -100.8520    0.7203 C.3     914        0    0.0000
   5487 H        1465.1781 -100.4805    2.4800 H       914        0    0.0000
   5488 H        1464.0833  -99.1626    2.0760 H       914        0    0.0000
   5489 H        1463.5422 -100.2863   -0.1192 H       914        0    0.0000
   5490 H        1464.6350 -101.6049    0.2871 H       914        0    0.0000
   5491 C        1462.8014 -101.5844    1.4733 C.3     915        0    0.0000
   5492 C        1462.0105 -102.5190    0.5513 C.3     915        0    0.0000
   5493 H        1463.2247 -102.1523    2.3111 H       915        0    0.0000
   5494 H        1462.1331 -100.8314    1.9089 H       915        0    0.0000
   5495 H        1461.5972 -101.9531   -0.2927 H       915        0    0.0000
   5496 H        1462.6769 -103.2790    0.1248 H       915        0    0.0000
   5497 C        1460.8368 -103.2390    1.3005 C.3     916        0    0.0000
   5498 C        1460.0546 -104.1841    0.3819 C.3     916        0    0.0000
   5499 H        1461.2493 -103.7965    2.1505 H       916        0    0.0000
   5500 H        1460.1652 -102.4790    1.7183 H       916        0    0.0000
   5501 H        1459.6611 -103.6308   -0.4800 H       916        0    0.0000
   5502 H        1460.7217 -104.9576   -0.0181 H       916        0    0.0000
   5503 C        1458.8612 -104.8800    1.1229 C.3     917        0    0.0000
   5504 C        1458.0835 -105.8308    0.2063 C.3     917        0    0.0000
   5505 H        1459.2538 -105.4287    1.9879 H       917        0    0.0000
   5506 H        1458.1912 -104.1065    1.5181 H       917        0    0.0000
   5507 H        1457.7015 -105.2846   -0.6649 H       917        0    0.0000
   5508 H        1458.7510 -106.6114   -0.1792 H       917        0    0.0000
   5509 C        1456.8798 -106.5136    0.9426 C.3     918        0    0.0000
   5510 C        1456.1042 -107.4671    0.0270 C.3     918        0    0.0000
   5511 H        1457.2617 -107.0576    1.8153 H       918        0    0.0000
   5512 H        1456.2112 -105.7330    1.3259 H       918        0    0.0000
   5513 H        1455.7220 -106.9230   -0.8455 H       918        0    0.0000
   5514 H        1456.7731 -108.2475   -0.3566 H       918        0    0.0000
   5515 C        1454.9006 -108.1503    0.7635 C.3     919        0    0.0000
   5516 C        1454.1215 -109.0988   -0.1539 C.3     919        0    0.0000
   5517 H        1455.2836 -108.6984    1.6333 H       919        0    0.0000
   5518 H        1454.2345 -107.3698    1.1512 H       919        0    0.0000
   5519 H        1453.7445 -108.5522   -1.0273 H       919        0    0.0000
   5520 H        1454.7860 -109.8835   -0.5360 H       919        0    0.0000
   5521 C        1452.9116 -109.7743    0.5797 C.3     920        0    0.0000
   5522 C        1452.1343 -110.7255   -0.3367 C.3     920        0    0.0000
   5523 H        1453.2881 -110.3188    1.4546 H       920        0    0.0000
   5524 H        1452.2457 -108.9897    0.9596 H       920        0    0.0000
   5525 H        1451.7723 -110.1847   -1.2199 H       920        0    0.0000
   5526 H        1452.7964 -111.5198   -0.7031 H       920        0    0.0000
   5527 C        1450.9106 -111.3827    0.3900 C.3     921        0    0.0000
   5528 C        1450.1351 -112.3365   -0.5255 C.3     921        0    0.0000
   5529 H        1451.2725 -111.9214    1.2746 H       921        0    0.0000
   5530 H        1450.2472 -110.5885    0.7542 H       921        0    0.0000
   5531 H        1449.7822 -111.8002   -1.4150 H       921        0    0.0000
   5532 H        1450.7959 -113.1366   -0.8815 H       921        0    0.0000
   5533 C        1448.9032 -112.9829    0.1970 C.3     922        0    0.0000
   5534 C        1448.1294 -113.9389   -0.7176 C.3     922        0    0.0000
   5535 H        1449.2559 -113.5174    1.0876 H       922        0    0.0000
   5536 H        1448.2413 -112.1829    0.5512 H       922        0    0.0000
   5537 H        1447.7798 -113.4053   -1.6101 H       922        0    0.0000
   5538 H        1448.7905 -114.7410   -1.0687 H       922        0    0.0000
   5539 C        1446.8943 -114.5812    0.0032 C.3     923        0    0.0000
   5540 C        1446.1178 -115.5335   -0.9128 C.3     923        0    0.0000
   5541 H        1447.2444 -115.1178    0.8938 H       923        0    0.0000
   5542 H        1446.2352 -113.7790    0.3574 H       923        0    0.0000
   5543 H        1445.7694 -114.9974   -1.8043 H       923        0    0.0000
   5544 H        1446.7765 -116.3368   -1.2655 H       923        0    0.0000
   5545 C        1444.8811 -116.1738   -0.1928 C.3     924        0    0.0000
   5546 C        1444.1003 -117.1204   -1.1111 C.3     924        0    0.0000
   5547 H        1445.2300 -116.7144    0.6957 H       924        0    0.0000
   5548 H        1444.2251 -115.3704    0.1646 H       924        0    0.0000
   5549 H        1443.7632 -116.5831   -2.0062 H       924        0    0.0000
   5550 H        1444.7528 -117.9314   -1.4576 H       924        0    0.0000
   5551 C        1442.8525 -117.7457   -0.3972 C.3     925        0    0.0000
   5552 C        1442.0795 -118.7027   -1.3112 C.3     925        0    0.0000
   5553 H        1443.1887 -118.2747    0.5032 H       925        0    0.0000
   5554 H        1442.1953 -116.9349   -0.0594 H       925        0    0.0000
   5555 H        1441.7607 -118.1788   -2.2209 H       925        0    0.0000
   5556 H        1442.7313 -119.5245   -1.6329 H       925        0    0.0000
   5557 C        1440.8158 -119.3062   -0.6066 C.3     926        0    0.0000
   5558 C        1440.0449 -120.2665   -1.5192 C.3     926        0    0.0000
   5559 H        1441.1343 -119.8274    0.3047 H       926        0    0.0000
   5560 H        1440.1625 -118.4846   -0.2877 H       926        0    0.0000
   5561 H        1439.7346 -119.7477   -2.4345 H       926        0    0.0000
   5562 H        1440.6958 -121.0930   -1.8308 H       926        0    0.0000
   5563 C        1438.7742 -120.8602   -0.8190 C.3     927        0    0.0000
   5564 C        1438.0035 -121.8208   -1.7314 C.3     927        0    0.0000
   5565 H        1439.0847 -121.3788    0.0966 H       927        0    0.0000
   5566 H        1438.1235 -120.0338   -0.5076 H       927        0    0.0000
   5567 H        1437.6882 -121.3007   -2.6444 H       927        0    0.0000
   5568 H        1438.6561 -122.6442   -2.0474 H       927        0    0.0000
   5569 C        1436.7374 -122.4207   -1.0284 C.3     928        0    0.0000
   5570 C        1435.9580 -123.3687   -1.9464 C.3     928        0    0.0000
   5571 H        1437.0542 -122.9509   -0.1218 H       928        0    0.0000
   5572 H        1436.0908 -121.5969   -0.7019 H       928        0    0.0000
   5573 H        1435.6428 -122.8390   -2.8539 H       928        0    0.0000
   5574 H        1436.6039 -124.1936   -2.2713 H       928        0    0.0000
   5575 C        1434.6901 -123.9665   -1.2442 C.3     929        0    0.0000
   5576 C        1433.9047 -124.9063   -2.1657 C.3     929        0    0.0000
   5577 H        1435.0061 -124.5029   -0.3409 H       929        0    0.0000
   5578 H        1434.0477 -123.1415   -0.9123 H       929        0    0.0000
   5579 H        1433.5991 -124.3732   -3.0746 H       929        0    0.0000
   5580 H        1434.5435 -125.7379   -2.4878 H       929        0    0.0000
   5581 C        1432.6274 -125.4906   -1.4693 C.3     930        0    0.0000
   5582 C        1431.8495 -126.4409   -2.3862 C.3     930        0    0.0000
   5583 H        1432.9319 -126.0152   -0.5552 H       930        0    0.0000
   5584 H        1431.9840 -124.6593   -1.1560 H       930        0    0.0000
   5585 H        1431.5641 -125.9226   -3.3101 H       930        0    0.0000
   5586 H        1432.4862 -127.2840   -2.6816 H       930        0    0.0000
   5587 C        1430.5553 -127.0008   -1.7009 C.3     931        0    0.0000
   5588 C        1429.7842 -127.9612   -2.6130 C.3     931        0    0.0000
   5589 H        1430.8396 -127.5109   -0.7721 H       931        0    0.0000
   5590 H        1429.9142 -126.1581   -1.4140 H       931        0    0.0000
   5591 H        1429.5126 -127.4554   -3.5479 H       931        0    0.0000
   5592 H        1430.4207 -128.8113   -2.8882 H       931        0    0.0000
   5593 C        1428.4795 -128.5053   -1.9353 C.3     932        0    0.0000
   5594 C        1427.7120 -129.4712   -2.8448 C.3     932        0    0.0000
   5595 H        1428.7506 -129.0066   -0.9979 H       932        0    0.0000
   5596 H        1427.8407 -127.6555   -1.6649 H       932        0    0.0000
   5597 H        1427.4434 -128.9708   -3.7834 H       932        0    0.0000
   5598 H        1428.3501 -130.3224   -3.1131 H       932        0    0.0000
   5599 C        1426.4053 -130.0123   -2.1686 C.3     933        0    0.0000
   5600 C        1425.6323 -130.9698   -3.0822 C.3     933        0    0.0000
   5601 H        1426.6749 -130.5195   -1.2340 H       933        0    0.0000
   5602 H        1425.7710 -129.1607   -1.8933 H       933        0    0.0000
   5603 H        1425.3660 -130.4637   -4.0183 H       933        0    0.0000
   5604 H        1426.2655 -131.8233   -3.3546 H       933        0    0.0000
   5605 C        1424.3229 -131.5070   -2.4079 C.3     934        0    0.0000
   5606 C        1423.5435 -132.4548   -3.3262 C.3     934        0    0.0000
   5607 H        1424.5902 -132.0210   -1.4763 H       934        0    0.0000
   5608 H        1423.6937 -130.6531   -2.1273 H       934        0    0.0000
   5609 H        1423.2815 -131.9426   -4.2603 H       934        0    0.0000
   5610 H        1424.1708 -133.3116   -3.6019 H       934        0    0.0000
   5611 C        1422.2297 -132.9852   -2.6551 C.3     935        0    0.0000
   5612 C        1421.4584 -133.9451   -3.5675 C.3     935        0    0.0000
   5613 H        1422.4907 -133.4875   -1.7154 H       935        0    0.0000
   5614 H        1421.5977 -132.1288   -2.3896 H       935        0    0.0000
   5615 H        1421.2205 -133.4514   -4.5178 H       935        0    0.0000
   5616 H        1422.0812 -134.8146   -3.8113 H       935        0    0.0000
   5617 C        1420.1259 -134.4463   -2.9113 C.3     936        0    0.0000
   5618 C        1419.3644 -135.4221   -3.8152 C.3     936        0    0.0000
   5619 H        1420.3621 -134.9269   -1.9538 H       936        0    0.0000
   5620 H        1419.4967 -133.5777   -2.6810 H       936        0    0.0000
   5621 H        1419.1388 -134.9455   -4.7773 H       936        0    0.0000
   5622 H        1419.9891 -136.2964   -4.0357 H       936        0    0.0000
   5623 C        1418.0234 -135.9101   -3.1662 C.3     937        0    0.0000
   5624 C        1417.2612 -136.8845   -4.0709 C.3     937        0    0.0000
   5625 H        1418.2494 -136.3878   -2.2048 H       937        0    0.0000
   5626 H        1417.3992 -135.0357   -2.9446 H       937        0    0.0000
   5627 H        1417.0352 -136.4067   -5.0322 H       937        0    0.0000
   5628 H        1417.8857 -137.7588   -4.2927 H       937        0    0.0000
   5629 C        1415.9204 -137.3728   -3.4217 C.3     938        0    0.0000
   5630 C        1415.1448 -138.3260   -4.3377 C.3     938        0    0.0000
   5631 H        1416.1483 -137.8683   -2.4697 H       938        0    0.0000
   5632 H        1415.3044 -136.4974   -3.1816 H       938        0    0.0000
   5633 H        1414.9219 -137.8325   -5.2917 H       938        0    0.0000
   5634 H        1415.7588 -139.2041   -4.5733 H       938        0    0.0000
   5635 C        1413.8004 -138.8082   -3.6917 C.3     939        0    0.0000
   5636 C        1413.0211 -139.7552   -4.6109 C.3     939        0    0.0000
   5637 H        1414.0243 -139.3070   -2.7405 H       939        0    0.0000
   5638 H        1413.1888 -137.9299   -3.4507 H       939        0    0.0000
   5639 H        1412.8075 -139.2604   -5.5665 H       939        0    0.0000
   5640 H        1413.6284 -140.6390   -4.8425 H       939        0    0.0000
   5641 C        1411.6689 -140.2245   -3.9716 C.3     940        0    0.0000
   5642 C        1410.9032 -141.1938   -4.8787 C.3     940        0    0.0000
   5643 H        1411.8807 -140.7006   -3.0062 H       940        0    0.0000
   5644 H        1411.0531 -139.3419   -3.7592 H       940        0    0.0000
   5645 H        1410.7052 -140.7234   -5.8498 H       940        0    0.0000
   5646 H        1411.5129 -142.0837   -5.0783 H       940        0    0.0000
   5647 C        1409.5405 -141.6458   -4.2491 C.3     941        0    0.0000
   5648 C        1408.8038 -142.6630   -5.1276 C.3     941        0    0.0000
   5649 H        1409.7340 -142.0750   -3.2582 H       941        0    0.0000
   5650 H        1408.9127 -140.7601   -4.0918 H       941        0    0.0000
   5651 H        1408.6320 -142.2428   -6.1263 H       941        0    0.0000
   5652 H        1409.4219 -143.5589   -5.2649 H       941        0    0.0000
   5653 C        1407.4254 -143.0892   -4.5146 C.3     942        0    0.0000
   5654 C        1406.6733 -144.0804   -5.4096 C.3     942        0    0.0000
   5655 H        1407.5997 -143.5322   -3.5263 H       942        0    0.0000
   5656 H        1406.8167 -142.1906   -4.3542 H       942        0    0.0000
   5657 H        1406.4957 -143.6359   -6.3967 H       942        0    0.0000
   5658 H        1407.2834 -144.9773   -5.5731 H       942        0    0.0000
   5659 C        1405.2971 -144.5106   -4.7941 C.3     943        0    0.0000
   5660 C        1404.4828 -145.3893   -5.7499 C.3     943        0    0.0000
   5661 H        1405.4822 -145.0472   -3.8552 H       943        0    0.0000
   5662 H        1404.7285 -143.6090   -4.5350 H       943        0    0.0000
   5663 H        1404.3167 -144.8612   -6.6970 H       943        0    0.0000
   5664 H        1405.0426 -146.3013   -5.9917 H       943        0    0.0000
   5665 C        1403.0935 -145.7940   -5.1467 C.3     944        0    0.0000
   5666 C        1402.4496 -146.9609   -5.9034 C.3     944        0    0.0000
   5667 H        1403.2302 -146.0599   -4.0912 H       944        0    0.0000
   5668 H        1402.4308 -144.9201   -5.1682 H       944        0    0.0000
   5669 H        1402.3151 -146.6958   -6.9595 H       944        0    0.0000
   5670 H        1403.1113 -147.8355   -5.8800 H       944        0    0.0000
   5671 C        1401.0587 -147.3634   -5.3024 C.3     945        0    0.0000
   5672 C        1400.1759 -148.0945   -6.3198 C.3     945        0    0.0000
   5673 H        1401.2239 -147.9981   -4.4229 H       945        0    0.0000
   5674 H        1400.5520 -146.4578   -4.9466 H       945        0    0.0000
   5675 H        1399.9601 -147.4373   -7.1714 H       945        0    0.0000
   5676 H        1400.7074 -148.9662   -6.7213 H       945        0    0.0000
   5677 C        1398.8202 -148.5731   -5.6946 C.3     946        0    0.0000
   5678 C        1397.6108 -148.1448   -6.5329 C.3     946        0    0.0000
   5679 H        1398.8422 -149.6656   -5.5968 H       946        0    0.0000
   5680 H        1398.7367 -148.1674   -4.6788 H       946        0    0.0000
   5681 H        1397.7340 -147.1075   -6.8681 H       946        0    0.0000
   5682 H        1397.5422 -148.7620   -7.4373 H       946        0    0.0000
   5683 C        1396.2650 -148.2625   -5.7376 C.3     947        0    0.0000
   5684 C        1395.6001 -149.6313   -5.9204 C.3     947        0    0.0000
   5685 H        1396.4657 -148.0807   -4.6745 H       947        0    0.0000
   5686 H        1395.5868 -147.4672   -6.0708 H       947        0    0.0000
   5687 H        1395.4828 -149.8526   -6.9885 H       947        0    0.0000
   5688 H        1396.2404 -150.4190   -5.5040 H       947        0    0.0000
   5689 C        1394.1941 -149.7055   -5.2312 C.3     948        0    0.0000
   5690 C        1393.8702 -151.1147   -4.7228 C.3     948        0    0.0000
   5691 H        1394.1698 -148.9908   -4.3993 H       948        0    0.0000
   5692 H        1393.4309 -149.3799   -5.9487 H       948        0    0.0000
   5693 H        1393.8885 -151.8285   -5.5556 H       948        0    0.0000
   5694 H        1394.6366 -151.4428   -4.0097 H       948        0    0.0000
   5695 C        1392.4678 -151.1871   -4.0260 C.3     949        0    0.0000
   5696 C        1391.5162 -152.1570   -4.7352 C.3     949        0    0.0000
   5697 H        1392.6072 -151.4930   -2.9817 H       949        0    0.0000
   5698 H        1392.0316 -150.1807   -4.0040 H       949        0    0.0000
   5699 H        1391.5172 -151.9629   -5.8149 H       949        0    0.0000
   5700 H        1391.8623 -153.1894   -4.6004 H       949        0    0.0000
   5701 C        1390.0465 -152.0431   -4.2026 C.3     950        0    0.0000
   5702 C        1389.1718 -153.2173   -4.6559 C.3     950        0    0.0000
   5703 H        1390.0702 -151.9930   -3.1069 H       950        0    0.0000
   5704 H        1389.6161 -151.0965   -4.5521 H       950        0    0.0000
   5705 H        1389.1534 -153.2716   -5.7515 H       950        0    0.0000
   5706 H        1389.5985 -154.1634   -4.3006 H       950        0    0.0000
   5707 C        1387.6992 -153.0984   -4.1313 C.3     951        0    0.0000
   5708 C        1386.8082 -154.2376   -4.6386 C.3     951        0    0.0000
   5709 H        1387.7141 -153.0923   -3.0344 H       951        0    0.0000
   5710 H        1387.2888 -152.1310   -4.4462 H       951        0    0.0000
   5711 H        1386.7583 -154.2166   -5.7343 H       951        0    0.0000
   5712 H        1387.2421 -155.2064   -4.3615 H       951        0    0.0000
   5713 C        1385.3518 -154.1535   -4.0645 C.3     952        0    0.0000
   5714 C        1384.4530 -155.2763   -4.5941 C.3     952        0    0.0000
   5715 H        1385.4006 -154.1955   -2.9693 H       952        0    0.0000
   5716 H        1384.9257 -153.1764   -4.3236 H       952        0    0.0000
   5717 H        1384.3870 -155.2209   -5.6878 H       952        0    0.0000
   5718 H        1384.8905 -156.2532   -4.3539 H       952        0    0.0000
   5719 C        1383.0052 -155.2102   -3.9964 C.3     953        0    0.0000
   5720 C        1382.0996 -156.3187   -4.5442 C.3     953        0    0.0000
   5721 H        1383.0701 -155.2831   -2.9037 H       953        0    0.0000
   5722 H        1382.5743 -154.2267   -4.2216 H       953        0    0.0000
   5723 H        1382.0222 -156.2363   -5.6354 H       953        0    0.0000
   5724 H        1382.5383 -157.3017   -4.3328 H       953        0    0.0000
   5725 C        1380.6582 -156.2660   -3.9299 C.3     954        0    0.0000
   5726 C        1379.7367 -157.3401   -4.5181 C.3     954        0    0.0000
   5727 H        1380.7328 -156.3887   -2.8423 H       954        0    0.0000
   5728 H        1380.2350 -155.2694   -4.1063 H       954        0    0.0000
   5729 H        1379.6158 -157.1825   -5.5970 H       954        0    0.0000
   5730 H        1380.1876 -158.3323   -4.3932 H       954        0    0.0000
   5731 C        1378.3204 -157.3407   -3.8460 C.3     955        0    0.0000
   5732 C        1377.3844 -158.3850   -4.4645 C.3     955        0    0.0000
   5733 H        1378.4386 -157.5308   -2.7720 H       955        0    0.0000
   5734 H        1377.8828 -156.3393   -3.9424 H       955        0    0.0000
   5735 H        1377.2620 -158.1918   -5.5374 H       955        0    0.0000
   5736 H        1377.8243 -159.3858   -4.3728 H       955        0    0.0000
   5737 C        1375.9706 -158.3906   -3.7874 C.3     956        0    0.0000
   5738 C        1375.0221 -159.4076   -4.4318 C.3     956        0    0.0000
   5739 H        1376.0908 -158.6123   -2.7197 H       956        0    0.0000
   5740 H        1375.5427 -157.3826   -3.8537 H       956        0    0.0000
   5741 H        1374.8907 -159.1774   -5.4964 H       956        0    0.0000
   5742 H        1375.4562 -160.4136   -4.3782 H       956        0    0.0000
   5743 C        1373.6145 -159.4274   -3.7418 C.3     957        0    0.0000
   5744 C        1372.6533 -160.4160   -4.4112 C.3     957        0    0.0000
   5745 H        1373.7432 -159.6860   -2.6834 H       957        0    0.0000
   5746 H        1373.1927 -158.4151   -3.7698 H       957        0    0.0000
   5747 H        1372.5267 -160.1588   -5.4701 H       957        0    0.0000
   5748 H        1373.0742 -161.4286   -4.3811 H       957        0    0.0000
   5749 C        1371.2449 -160.4334   -3.7233 C.3     958        0    0.0000
   5750 C        1370.2761 -161.4041   -4.4077 C.3     958        0    0.0000
   5751 H        1371.3699 -160.7080   -2.6685 H       958        0    0.0000
   5752 H        1370.8319 -159.4172   -3.7375 H       958        0    0.0000
   5753 H        1370.1422 -161.1226   -5.4596 H       958        0    0.0000
   5754 H        1370.6942 -162.4182   -4.4037 H       958        0    0.0000
   5755 C        1368.8727 -161.4335   -3.7099 C.3     959        0    0.0000
   5756 C        1367.8927 -162.3770   -4.4159 C.3     959        0    0.0000
   5757 H        1369.0038 -161.7405   -2.6649 H       959        0    0.0000
   5758 H        1368.4663 -160.4147   -3.6904 H       959        0    0.0000
   5759 H        1367.7598 -162.0686   -5.4603 H       959        0    0.0000
   5760 H        1368.3005 -163.3953   -4.4376 H       959        0    0.0000
   5761 C        1366.4902 -162.4090   -3.7161 C.3     960        0    0.0000
   5762 C        1365.4988 -163.3235   -4.4439 C.3     960        0    0.0000
   5763 H        1366.6200 -162.7440   -2.6796 H       960        0    0.0000
   5764 H        1366.0948 -161.3867   -3.6698 H       960        0    0.0000
   5765 H        1365.3688 -162.9881   -5.4803 H       960        0    0.0000
   5766 H        1365.8945 -164.3457   -4.4909 H       960        0    0.0000
   5767 C        1364.0966 -163.3563   -3.7436 C.3     961        0    0.0000
   5768 C        1363.0977 -164.2513   -4.4853 C.3     961        0    0.0000
   5769 H        1364.2245 -163.7092   -2.7127 H       961        0    0.0000
   5770 H        1363.7090 -162.3320   -3.6802 H       961        0    0.0000
   5771 H        1362.9773 -163.9043   -5.5190 H       961        0    0.0000
   5772 H        1363.4811 -165.2778   -4.5403 H       961        0    0.0000
   5773 C        1361.6917 -164.2734   -3.7926 C.3     962        0    0.0000
   5774 C        1360.6890 -165.1578   -4.5418 C.3     962        0    0.0000
   5775 H        1361.8109 -164.6298   -2.7619 H       962        0    0.0000
   5776 H        1361.3129 -163.2458   -3.7288 H       962        0    0.0000
   5777 H        1360.5769 -164.8072   -5.5753 H       962        0    0.0000
   5778 H        1361.0634 -166.1874   -4.5971 H       962        0    0.0000
   5779 C        1359.2788 -165.1690   -3.8566 C.3     963        0    0.0000
   5780 C        1358.2748 -166.0494   -4.6087 C.3     963        0    0.0000
   5781 H        1359.3903 -165.5231   -2.8242 H       963        0    0.0000
   5782 H        1358.9061 -164.1389   -3.7979 H       963        0    0.0000
   5783 H        1358.1750 -165.7048   -5.6454 H       963        0    0.0000
   5784 H        1358.6404 -167.0827   -4.6539 H       963        0    0.0000
   5785 C        1356.8588 -166.0434   -3.9358 C.3     964        0    0.0000
   5786 C        1355.8575 -166.9323   -4.6817 C.3     964        0    0.0000
   5787 H        1356.9597 -166.3805   -2.8967 H       964        0    0.0000
   5788 H        1356.4899 -165.0110   -3.8977 H       964        0    0.0000
   5789 H        1355.7676 -166.6043   -5.7247 H       964        0    0.0000
   5790 H        1356.2196 -167.9675   -4.7071 H       964        0    0.0000
   5791 C        1354.4360 -166.9102   -4.0207 C.3     965        0    0.0000
   5792 C        1353.4355 -167.8008   -4.7653 C.3     965        0    0.0000
   5793 H        1354.5264 -167.2366   -2.9772 H       965        0    0.0000
   5794 H        1354.0732 -165.8752   -3.9969 H       965        0    0.0000
   5795 H        1353.3544 -167.4820   -5.8119 H       965        0    0.0000
   5796 H        1353.7925 -168.8381   -4.7787 H       965        0    0.0000
   5797 C        1352.0098 -167.7655   -4.1144 C.3     966        0    0.0000
   5798 C        1350.9968 -168.6166   -4.8881 C.3     966        0    0.0000
   5799 H        1352.0851 -168.1194   -3.0787 H       966        0    0.0000
   5800 H        1351.6682 -166.7241   -4.0675 H       966        0    0.0000
   5801 H        1350.9294 -168.2694   -5.9266 H       966        0    0.0000
   5802 H        1351.3333 -169.6601   -4.9260 H       966        0    0.0000
   5803 C        1349.5675 -168.5695   -4.2457 C.3     967        0    0.0000
   5804 C        1348.9661 -169.9673   -4.0640 C.3     967        0    0.0000
   5805 H        1349.6321 -168.0589   -3.2769 H       967        0    0.0000
   5806 H        1348.9144 -167.9585   -4.8810 H       967        0    0.0000
   5807 H        1348.6865 -170.3861   -5.0387 H       967        0    0.0000
   5808 H        1349.7130 -170.6451   -3.6324 H       967        0    0.0000
   5809 C        1347.7010 -169.9540   -3.1381 C.3     968        0    0.0000
   5810 C        1346.3997 -169.8098   -3.9349 C.3     968        0    0.0000
   5811 H        1347.6823 -170.8810   -2.5518 H       968        0    0.0000
   5812 H        1347.7965 -169.1295   -2.4210 H       968        0    0.0000
   5813 H        1346.5140 -169.0371   -4.7052 H       968        0    0.0000
   5814 H        1346.1740 -170.7466   -4.4593 H       968        0    0.0000
   5815 C        1345.1821 -169.4361   -3.0211 C.3     969        0    0.0000
   5816 C        1343.9567 -169.0041   -3.8341 C.3     969        0    0.0000
   5817 H        1344.9318 -170.3009   -2.3943 H       969        0    0.0000
   5818 H        1345.4850 -168.6307   -2.3405 H       969        0    0.0000
   5819 H        1344.2701 -168.4005   -4.6950 H       969        0    0.0000
   5820 H        1343.4432 -169.8857   -4.2377 H       969        0    0.0000
   5821 C        1342.9386 -168.1738   -2.9787 C.3     970        0    0.0000
   5822 C        1341.7527 -169.0207   -2.5036 C.3     970        0    0.0000
   5823 H        1343.4663 -167.7480   -2.1162 H       970        0    0.0000
   5824 H        1342.5806 -167.3278   -3.5782 H       970        0    0.0000
   5825 H        1341.2780 -169.5166   -3.3593 H       970        0    0.0000
   5826 H        1342.1030 -169.8156   -1.8333 H       970        0    0.0000
   5827 C        1340.6746 -168.1652   -1.7532 C.3     971        0    0.0000
   5828 C        1339.3488 -168.9163   -1.5884 C.3     971        0    0.0000
   5829 H        1341.0706 -167.8806   -0.7704 H       971        0    0.0000
   5830 H        1340.5126 -167.2336   -2.3094 H       971        0    0.0000
   5831 H        1339.1573 -169.5396   -2.4706 H       971        0    0.0000
   5832 H        1339.4059 -169.5958   -0.7289 H       971        0    0.0000
   5833 C        1338.1364 -167.9437   -1.3841 C.3     972        0    0.0000
   5834 C        1336.8334 -168.6941   -1.0874 C.3     972        0    0.0000
   5835 H        1338.3699 -167.2556   -0.5621 H       972        0    0.0000
   5836 H        1338.0203 -167.3296   -2.2857 H       972        0    0.0000
   5837 H        1337.0559 -169.7046   -0.7228 H       972        0    0.0000
   5838 H        1336.2800 -168.1855   -0.2883 H       972        0    0.0000
   5839 C        1335.9106 -168.8042   -2.3499 C.3     973        0    0.0000
   5840 C        1334.5660 -169.4668   -2.0305 C.3     973        0    0.0000
   5841 H        1335.7472 -167.7988   -2.7573 H       973        0    0.0000
   5842 H        1336.4374 -169.3760   -3.1240 H       973        0    0.0000
   5843 H        1333.7504 -168.7451   -2.1621 H       973        0    0.0000
   5844 H        1334.3757 -170.2887   -2.7318 H       973        0    0.0000
   5845 C        1334.5129 -170.0281   -0.5678 C.3     974        0    0.0000
   5846 C        1333.1097 -170.5076   -0.1802 C.3     974        0    0.0000
   5847 H        1335.2303 -170.8534   -0.4795 H       974        0    0.0000
   5848 H        1334.8472 -169.2448    0.1238 H       974        0    0.0000
   5849 H        1332.5935 -170.9107   -1.0603 H       974        0    0.0000
   5850 H        1333.1796 -171.3264    0.5466 H       974        0    0.0000
   5851 C        1332.2382 -169.3589    0.4347 C.3     975        0    0.0000
   5852 C        1330.7460 -169.5370    0.1333 C.3     975        0    0.0000
   5853 H        1332.4025 -169.3322    1.5190 H       975        0    0.0000
   5854 H        1332.5897 -168.3979    0.0391 H       975        0    0.0000
   5855 H        1330.2999 -168.5729   -0.1406 H       975        0    0.0000
   5856 H        1330.6132 -170.2020   -0.7291 H       975        0    0.0000
   5857 C        1329.9600 -170.1288    1.3537 C.3     976        0    0.0000
   5858 C        1328.5042 -170.4562    1.0033 C.3     976        0    0.0000
   5859 H        1330.4755 -171.0325    1.7017 H       976        0    0.0000
   5860 H        1329.9951 -169.4081    2.1800 H       976        0    0.0000
   5861 H        1328.3925 -170.5571   -0.0833 H       976        0    0.0000
   5862 H        1328.2202 -171.4217    1.4403 H       976        0    0.0000
   5863 C        1327.5088 -169.3581    1.5140 C.3     977        0    0.0000
   5864 C        1326.1093 -169.5163    0.9094 C.3     977        0    0.0000
   5865 H        1327.4541 -169.4119    2.6084 H       977        0    0.0000
   5866 H        1327.9158 -168.3697    1.2671 H       977        0    0.0000
   5867 H        1325.9952 -168.8494    0.0458 H       977        0    0.0000
   5868 H        1325.9738 -170.5394    0.5375 H       977        0    0.0000
   5869 C        1324.9756 -169.2007    1.9450 C.3     978        0    0.0000
   5870 C        1323.6859 -169.9737    1.6479 C.3     978        0    0.0000
   5871 H        1325.3376 -169.4456    2.9512 H       978        0    0.0000
   5872 H        1324.7781 -168.1217    1.9351 H       978        0    0.0000
   5873 H        1323.2715 -169.6571    0.6827 H       978        0    0.0000
   5874 H        1323.9012 -171.0460    1.5618 H       978        0    0.0000
   5875 C        1322.5986 -169.7642    2.7577 C.3     979        0    0.0000
   5876 C        1321.2415 -169.3594    2.1720 C.3     979        0    0.0000
   5877 H        1322.4979 -170.6924    3.3338 H       979        0    0.0000
   5878 H        1322.9508 -168.9959    3.4572 H       979        0    0.0000
   5879 H        1321.3806 -168.6093    1.3837 H       979        0    0.0000
   5880 H        1320.7614 -170.2261    1.7010 H       979        0    0.0000
   5881 C        1320.2751 -168.7759    3.2599 C.3     980        0    0.0000
   5882 C        1318.8359 -169.2733    3.0853 C.3     980        0    0.0000
   5883 H        1320.6512 -169.0534    4.2524 H       980        0    0.0000
   5884 H        1320.3038 -167.6805    3.2072 H       980        0    0.0000
   5885 H        1318.4591 -168.9941    2.0936 H       980        0    0.0000
   5886 H        1318.8079 -170.3687    3.1361 H       980        0    0.0000
   5887 C        1317.8702 -168.6920    4.1748 C.3     981        0    0.0000
   5888 C        1316.4010 -168.7598    3.7443 C.3     981        0    0.0000
   5889 H        1318.0146 -169.2490    5.1088 H       981        0    0.0000
   5890 H        1318.1543 -167.6525    4.3808 H       981        0    0.0000
   5891 H        1316.2598 -168.2165    2.8017 H       981        0    0.0000
   5892 H        1316.1123 -169.8010    3.5540 H       981        0    0.0000
   5893 C        1315.4370 -168.1575    4.8240 C.3     982        0    0.0000
   5894 C        1313.9688 -168.4968    4.5456 C.3     982        0    0.0000
   5895 H        1315.7303 -168.5369    5.8107 H       982        0    0.0000
   5896 H        1315.5731 -167.0693    4.8517 H       982        0    0.0000
   5897 H        1313.6760 -168.1196    3.5579 H       982        0    0.0000
   5898 H        1313.8323 -169.5851    4.5203 H       982        0    0.0000
   5899 C        1313.0044 -167.8917    5.6234 C.3     983        0    0.0000
   5900 C        1311.5292 -168.0657    5.2462 C.3     983        0    0.0000
   5901 H        1313.2054 -168.3738    6.5882 H       983        0    0.0000
   5902 H        1313.2378 -166.8271    5.7487 H       983        0    0.0000
   5903 H        1311.3386 -167.6247    4.2599 H       983        0    0.0000
   5904 H        1311.2845 -169.1322    5.1670 H       983        0    0.0000
   5905 C        1310.5665 -167.4025    6.2907 C.3     984        0    0.0000
   5906 C        1309.0920 -167.6865    5.9839 C.3     984        0    0.0000
   5907 H        1310.8208 -167.7736    7.2913 H       984        0    0.0000
   5908 H        1310.7472 -166.3204    6.3007 H       984        0    0.0000
   5909 H        1308.8413 -167.3280    4.9778 H       984        0    0.0000
   5910 H        1308.9087 -168.7681    5.9877 H       984        0    0.0000
   5911 C        1308.1285 -167.0069    7.0171 C.3     985        0    0.0000
   5912 C        1306.6537 -167.2796    6.7022 C.3     985        0    0.0000
   5913 H        1308.3728 -167.3731    8.0220 H       985        0    0.0000
   5914 H        1308.3190 -165.9265    7.0205 H       985        0    0.0000
   5915 H        1306.4154 -166.9348    5.6883 H       985        0    0.0000
   5916 H        1306.4581 -168.3589    6.7221 H       985        0    0.0000
   5917 C        1305.6892 -166.5726    7.7159 C.3     986        0    0.0000
   5918 C        1304.2150 -166.8622    7.4135 C.3     986        0    0.0000
   5919 H        1305.9375 -166.9057    8.7312 H       986        0    0.0000
   5920 H        1305.8744 -165.4917    7.6849 H       986        0    0.0000
   5921 H        1303.9708 -166.5442    6.3923 H       986        0    0.0000
   5922 H        1304.0262 -167.9418    7.4609 H       986        0    0.0000
   5923 C        1303.2498 -166.1362    8.4130 C.3     987        0    0.0000
   5924 C        1301.7760 -166.4385    8.1203 C.3     987        0    0.0000
   5925 H        1303.5013 -166.4453    9.4351 H       987        0    0.0000
   5926 H        1303.4305 -165.0556    8.3571 H       987        0    0.0000
   5927 H        1301.5271 -166.1386    7.0948 H       987        0    0.0000
   5928 H        1301.5933 -167.5182    8.1860 H       987        0    0.0000
   5929 C        1300.8103 -165.7014    9.1110 C.3     988        0    0.0000
   5930 C        1299.3356 -165.9775    8.7980 C.3     988        0    0.0000
   5931 H        1301.0437 -166.0195   10.1346 H       988        0    0.0000
   5932 H        1301.0096 -164.6236    9.0629 H       988        0    0.0000
   5933 H        1299.1053 -165.6707    7.7702 H       988        0    0.0000
   5934 H        1299.1333 -167.0541    8.8581 H       988        0    0.0000
   5935 C        1298.3694 -165.2266    9.7779 C.3     989        0    0.0000
   5936 C        1297.1565 -166.0798   10.1652 C.3     989        0    0.0000
   5937 H        1298.9298 -164.9398   10.6764 H       989        0    0.0000
   5938 H        1298.0377 -164.2951    9.3028 H       989        0    0.0000
   5939 H        1296.5961 -166.3664    9.2667 H       989        0    0.0000
   5940 H        1297.4882 -167.0115   10.6401 H       989        0    0.0000
   5941 C        1296.1906 -165.3290   11.1453 C.3     990        0    0.0000
   5942 C        1294.8850 -164.9053   10.4632 C.3     990        0    0.0000
   5943 H        1295.9739 -165.9837   11.9987 H       990        0    0.0000
   5944 H        1296.7080 -164.4490   11.5468 H       990        0    0.0000
   5945 H        1295.0986 -164.4738    9.4774 H       990        0    0.0000
   5946 H        1294.2483 -165.7822   10.2921 H       990        0    0.0000
   5947 C        1294.0847 -163.8573   11.3108 C.3     991        0    0.0000
   5948 C        1292.6926 -164.3667   11.7006 C.3     991        0    0.0000
   5949 H        1294.6627 -163.6154   12.2114 H       991        0    0.0000
   5950 H        1293.9973 -162.9283   10.7337 H       991        0    0.0000
   5951 H        1292.2003 -164.8186   10.8306 H       991        0    0.0000
   5952 H        1292.7794 -165.1552   12.4585 H       991        0    0.0000
   5953 C        1291.7778 -163.2244   12.2624 C.3     992        0    0.0000
   5954 C        1291.4978 -163.3881   13.7603 C.3     992        0    0.0000
   5955 H        1292.2626 -162.2584   12.0737 H       992        0    0.0000
   5956 H        1290.8348 -163.2187   11.7018 H       992        0    0.0000
   5957 H        1290.5795 -163.9693   13.9100 H       992        0    0.0000
   5958 H        1292.3093 -163.9535   14.2351 H       992        0    0.0000
   5959 C        1291.3478 -162.0092   14.4909 C.3     993        0    0.0000
   5960 C        1289.8948 -161.7116   14.8769 C.3     993        0    0.0000
   5961 H        1291.9817 -162.0126   15.3862 H       993        0    0.0000
   5962 H        1291.7325 -161.2181   13.8353 H       993        0    0.0000
   5963 H        1289.2147 -162.0948   14.1061 H       993        0    0.0000
   5964 H        1289.6392 -162.2308   15.8089 H       993        0    0.0000
   5965 C        1289.6323 -160.1775   15.0649 C.3     994        0    0.0000
   5966 C        1288.2051 -159.8866   15.5420 C.3     994        0    0.0000
   5967 H        1290.3580 -159.7802   15.7853 H       994        0    0.0000
   5968 H        1289.8220 -159.6670   14.1126 H       994        0    0.0000
   5969 H        1288.2264 -159.4543   16.5500 H       994        0    0.0000
   5970 H        1287.7349 -159.1408   14.8891 H       994        0    0.0000
   5971 C        1287.3118 -161.1745   15.5633 C.3     995        0    0.0000
   5972 C        1285.8898 -160.8871   16.0575 C.3     995        0    0.0000
   5973 H        1287.2800 -161.5996   14.5524 H       995        0    0.0000
   5974 H        1287.7888 -161.9252   16.2057 H       995        0    0.0000
   5975 H        1285.1599 -161.1708   15.2891 H       995        0    0.0000
   5976 H        1285.6685 -161.4967   16.9424 H       995        0    0.0000
   5977 C        1285.6807 -159.3763   16.4195 C.3     996        0    0.0000
   5978 C        1284.2797 -159.1011   16.9768 C.3     996        0    0.0000
   5979 H        1286.4418 -159.0796   17.1519 H       996        0    0.0000
   5980 H        1285.8542 -158.7701   15.5217 H       996        0    0.0000
   5981 H        1283.5260 -159.6229   16.3742 H       996        0    0.0000
   5982 H        1284.1963 -159.4962   17.9969 H       996        0    0.0000
   5983 C        1283.9387 -157.5711   16.9981 C.3     997        0    0.0000
   5984 C        1282.6393 -157.2761   17.7554 C.3     997        0    0.0000
   5985 H        1284.7739 -157.0291   17.4588 H       997        0    0.0000
   5986 H        1283.8617 -157.2115   15.9645 H       997        0    0.0000
   5987 H        1281.8186 -157.8756   17.3422 H       997        0    0.0000
   5988 H        1282.7430 -157.5672   18.8081 H       997        0    0.0000
   5989 C        1282.2424 -155.7611   17.6869 C.3     998        0    0.0000
   5990 C        1280.8164 -155.5109   18.1897 C.3     998        0    0.0000
   5991 H        1282.9584 -155.1808   18.2822 H       998        0    0.0000
   5992 H        1282.3417 -155.4159   16.6504 H       998        0    0.0000
   5993 H        1280.3224 -154.7598   17.5610 H       998        0    0.0000
   5994 H        1280.2223 -156.4297   18.1086 H       998        0    0.0000
   5995 C        1280.7886 -155.0210   19.6785 C.3     999        0    0.0000
   5996 C        1279.5466 -155.5144   20.4292 C.3     999        0    0.0000
   5997 H        1281.6973 -155.3718   20.1832 H       999        0    0.0000
   5998 H        1280.8247 -153.9246   19.6907 H       999        0    0.0000
   5999 H        1279.4089 -156.5898   20.2624 H       999        0    0.0000
   6000 H        1279.6812 -155.3777   21.5093 H       999        0    0.0000
   6001 C        1278.2452 -154.7630   19.9829 C.3    1000        0    0.0000
   6002 C        1276.9869 -155.3391   20.6416 C.3    1000        0    0.0000
   6003 H        1278.3474 -153.6997   20.2328 H      1000        0    0.0000
   6004 H        1278.1592 -154.8229   18.8908 H      1000        0    0.0000
   6005 H        1277.0289 -156.4353   20.6385 H      1000        0    0.0000
   6006 H        1276.9369 -155.0287   21.6927 H      1000        0    0.0000
   6007 C        1275.6743 -154.8817   19.9167 C.3    1001        0    0.0000
   6008 C        1274.4304 -155.0756   20.7908 C.3    1001        0    0.0000
   6009 H        1275.7753 -153.8263   19.6351 H      1001        0    0.0000
   6010 H        1275.5702 -155.4484   18.9831 H      1001        0    0.0000
   6011 H        1273.5665 -155.3308   20.1645 H      1001        0    0.0000
   6012 H        1274.5809 -155.9176   21.4779 H      1001        0    0.0000
   6013 C        1274.0872 -153.7954   21.6280 C.3    1002        0    0.0000
   6014 C        1272.8837 -154.0112   22.5523 C.3    1002        0    0.0000
   6015 H        1274.9679 -153.5116   22.2173 H      1002        0    0.0000
   6016 H        1273.8881 -152.9652   20.9391 H      1002        0    0.0000
   6017 H        1272.1788 -154.7158   22.0938 H      1002        0    0.0000
   6018 H        1273.2112 -154.4630   23.4968 H      1002        0    0.0000
   6019 C        1272.1287 -152.6739   22.8668 C.3    1003        0    0.0000
   6020 C        1271.0980 -152.8387   23.9892 C.3    1003        0    0.0000
   6021 H        1272.8649 -151.9084   23.1416 H      1003        0    0.0000
   6022 H        1271.6355 -152.3228   21.9519 H      1003        0    0.0000
   6023 H        1270.3220 -153.5524   23.6856 H      1003        0    0.0000
   6024 H        1271.5785 -153.2569   24.8824 H      1003        0    0.0000
   6025 C        1270.4142 -151.4811   24.3719 C.3    1004        0    0.0000
   6026 C        1268.9801 -151.6752   24.8768 C.3    1004        0    0.0000
   6027 H        1271.0195 -150.9846   25.1404 H      1004        0    0.0000
   6028 H        1270.4181 -150.8232   23.4941 H      1004        0    0.0000
   6029 H        1268.3187 -150.9232   24.4290 H      1004        0    0.0000
   6030 H        1268.6003 -152.6555   24.5633 H      1004        0    0.0000
   6031 C        1268.8805 -151.5704   26.4378 C.3    1005        0    0.0000
   6032 C        1267.4388 -151.3632   26.9153 C.3    1005        0    0.0000
   6033 H        1269.2959 -152.4841   26.8807 H      1005        0    0.0000
   6034 H        1269.5122 -150.7404   26.7774 H      1005        0    0.0000
   6035 H        1266.7365 -151.7793   26.1825 H      1005        0    0.0000
   6036 H        1267.2722 -151.9052   27.8543 H      1005        0    0.0000
   6037 C        1267.0986 -149.8493   27.1383 C.3    1006        0    0.0000
   6038 C        1265.5881 -149.5948   27.1892 C.3    1006        0    0.0000
   6039 H        1267.5681 -149.5152   28.0719 H      1006        0    0.0000
   6040 H        1267.5520 -149.2623   26.3300 H      1006        0    0.0000
   6041 H        1265.0875 -150.1372   26.3774 H      1006        0    0.0000
   6042 H        1265.1731 -149.9806   28.1286 H      1006        0    0.0000
   6043 C        1265.2380 -148.0714   27.0700 C.3    1007        0    0.0000
   6044 C        1263.9192 -147.7220   27.7682 C.3    1007        0    0.0000
   6045 H        1266.0588 -147.4852   27.5015 H      1007        0    0.0000
   6046 H        1265.1840 -147.8031   26.0075 H      1007        0    0.0000
   6047 H        1263.6323 -146.6891   27.5351 H      1007        0    0.0000
   6048 H        1263.1133 -148.3650   27.3931 H      1007        0    0.0000
   6049 C        1264.0103 -147.8821   29.3249 C.3    1008        0    0.0000
   6050 C        1262.7780 -147.3170   30.0399 C.3    1008        0    0.0000
   6051 H        1264.1293 -148.9459   29.5647 H      1008        0    0.0000
   6052 H        1264.9163 -147.3757   29.6801 H      1008        0    0.0000
   6053 H        1263.0873 -146.7101   30.8999 H      1008        0    0.0000
   6054 H        1262.2250 -146.6504   29.3666 H      1008        0    0.0000
   6055 C        1261.8113 -148.4454   30.5396 C.3    1009        0    0.0000
   6056 C        1260.3438 -148.1343   30.2254 C.3    1009        0    0.0000
   6057 H        1262.1033 -149.3939   30.0718 H      1009        0    0.0000
   6058 H        1261.9456 -148.5729   31.6208 H      1009        0    0.0000
   6059 H        1260.2772 -147.4892   29.3408 H      1009        0    0.0000
   6060 H        1259.8070 -149.0597   29.9815 H      1009        0    0.0000
   6061 C        1259.6166 -147.4287   31.4216 C.3    1010        0    0.0000
   6062 C        1258.7113 -146.2828   30.9566 C.3    1010        0    0.0000
   6063 H        1259.0273 -148.1759   31.9674 H      1010        0    0.0000
   6064 H        1260.3723 -147.0509   32.1214 H      1010        0    0.0000
   6065 H        1259.2708 -145.6036   30.3014 H      1010        0    0.0000
   6066 H        1257.8784 -146.6788   30.3624 H      1010        0    0.0000
   6067 C        1258.1290 -145.4607   32.1577 C.3    1011        0    0.0000
   6068 C        1256.6338 -145.1680   31.9906 C.3    1011        0    0.0000
   6069 H        1258.3014 -146.0201   33.0856 H      1011        0    0.0000
   6070 H        1258.6885 -144.5213   32.2475 H      1011        0    0.0000
   6071 H        1256.4924 -144.2757   31.3683 H      1011        0    0.0000
   6072 H        1256.1442 -145.9983   31.4667 H      1011        0    0.0000
   6073 C        1255.9149 -144.9442   33.3656 C.3    1012        0    0.0000
   6074 C        1254.9894 -143.7225   33.3451 C.3    1012        0    0.0000
   6075 H        1255.3424 -145.8456   33.6161 H      1012        0    0.0000
   6076 H        1256.6757 -144.8266   34.1473 H      1012        0    0.0000
   6077 H        1255.3685 -142.9754   32.6367 H      1012        0    0.0000
   6078 H        1253.9917 -144.0124   32.9931 H      1012        0    0.0000
   6079 C        1254.8533 -143.0564   34.7576 C.3    1013        0    0.0000
   6080 C        1253.4285 -142.5636   35.0325 C.3    1013        0    0.0000
   6081 H        1255.1537 -143.7837   35.5219 H      1013        0    0.0000
   6082 H        1255.5601 -142.2199   34.8236 H      1013        0    0.0000
   6083 H        1252.8883 -142.4277   34.0872 H      1013        0    0.0000
   6084 H        1252.8741 -143.3164   35.6066 H      1013        0    0.0000
   6085 C        1253.4099 -141.2104   35.8239 C.3    1014        0    0.0000
   6086 C        1252.0331 -140.5378   35.7921 C.3    1014        0    0.0000
   6087 H        1253.7107 -141.4031   36.8611 H      1014        0    0.0000
   6088 H        1254.1659 -140.5402   35.3960 H      1014        0    0.0000
   6089 H        1252.1212 -139.4862   36.0920 H      1014        0    0.0000
   6090 H        1251.6360 -140.5415   34.7695 H      1014        0    0.0000
   6091 C        1251.0029 -141.2479   36.7367 C.3    1015        0    0.0000
   6092 C        1249.5995 -140.6420   36.6256 C.3    1015        0    0.0000
   6093 H        1250.9724 -142.3158   36.4873 H      1015        0    0.0000
   6094 H        1251.3632 -141.1761   37.7704 H      1015        0    0.0000
   6095 H        1249.4998 -140.0953   35.6799 H      1015        0    0.0000
   6096 H        1248.8458 -141.4391   36.6098 H      1015        0    0.0000
   6097 C        1249.2782 -139.6664   37.8098 C.3    1016        0    0.0000
   6098 C        1248.0048 -138.8506   37.5610 C.3    1016        0    0.0000
   6099 H        1249.1760 -140.2514   38.7322 H      1016        0    0.0000
   6100 H        1250.1328 -138.9943   37.9561 H      1016        0    0.0000
   6101 H        1247.8905 -138.6492   36.4887 H      1016        0    0.0000
   6102 H        1247.1230 -139.4261   37.8693 H      1016        0    0.0000
   6103 C        1248.0127 -137.4864   38.3334 C.3    1017        0    0.0000
   6104 C        1246.6927 -137.2272   39.0681 C.3    1017        0    0.0000
   6105 H        1248.8462 -137.4889   39.0469 H      1017        0    0.0000
   6106 H        1248.2113 -136.6771   37.6199 H      1017        0    0.0000
   6107 H        1246.1703 -138.1746   39.2483 H      1017        0    0.0000
   6108 H        1246.8909 -136.7844   40.0523 H      1017        0    0.0000
   6109 C        1245.7440 -136.2713   38.2658 C.3    1018        0    0.0000
   6110 C        1244.3134 -136.2771   38.8158 C.3    1018        0    0.0000
   6111 H        1246.1556 -135.2550   38.2990 H      1018        0    0.0000
   6112 H        1245.7432 -136.5767   37.2120 H      1018        0    0.0000
   6113 H        1243.5928 -136.2325   37.9898 H      1018        0    0.0000
   6114 H        1244.1204 -137.2145   39.3521 H      1018        0    0.0000
   6115 C        1244.0449 -135.0754   39.7860 C.3    1019        0    0.0000
   6116 C        1242.9174 -135.3726   40.7808 C.3    1019        0    0.0000
   6117 H        1244.9712 -134.8430   40.3259 H      1019        0    0.0000
   6118 H        1243.7966 -134.1884   39.1900 H      1019        0    0.0000
   6119 H        1241.9436 -135.1781   40.3147 H      1019        0    0.0000
   6120 H        1242.9287 -136.4346   41.0557 H      1019        0    0.0000
   6121 C        1243.0339 -134.5116   42.0856 C.3    1020        0    0.0000
   6122 C        1241.7224 -133.7966   42.4287 C.3    1020        0    0.0000
   6123 H        1243.3345 -135.1644   42.9144 H      1020        0    0.0000
   6124 H        1243.8391 -133.7780   41.9544 H      1020        0    0.0000
   6125 H        1241.9321 -132.7945   42.8225 H      1020        0    0.0000
   6126 H        1241.1206 -133.6591   41.5219 H      1020        0    0.0000
   6127 C        1240.8733 -134.5866   43.4835 C.3    1021        0    0.0000
   6128 C        1239.3700 -134.3314   43.3279 C.3    1021        0    0.0000
   6129 H        1241.0859 -135.6577   43.3780 H      1021        0    0.0000
   6130 H        1241.2018 -134.2979   44.4896 H      1021        0    0.0000
   6131 H        1239.1188 -134.1989   42.2683 H      1021        0    0.0000
   6132 H        1238.8026 -135.2018   43.6799 H      1021        0    0.0000
   6133 C        1238.8971 -133.0652   44.1218 C.3    1022        0    0.0000
   6134 C        1237.7804 -132.3074   43.3949 C.3    1022        0    0.0000
   6135 H        1238.5538 -133.3786   45.1155 H      1022        0    0.0000
   6136 H        1239.7587 -132.4047   44.2800 H      1022        0    0.0000
   6137 H        1238.0165 -132.2231   42.3269 H      1022        0    0.0000
   6138 H        1236.8387 -132.8658   43.4662 H      1022        0    0.0000
   6139 C        1237.5607 -130.8693   43.9788 C.3    1023        0    0.0000
   6140 C        1236.1682 -130.6998   44.5966 C.3    1023        0    0.0000
   6141 H        1238.3330 -130.6719   44.7325 H      1023        0    0.0000
   6142 H        1237.7083 -130.1356   43.1767 H      1023        0    0.0000
   6143 H        1235.4553 -130.3672   43.8318 H      1023        0    0.0000
   6144 H        1235.8025 -131.6643   44.9701 H      1023        0    0.0000
   6145 C        1236.1631 -129.6666   45.7755 C.3    1024        0    0.0000
   6146 C        1234.7843 -129.0305   45.9844 C.3    1024        0    0.0000
   6147 H        1236.4856 -130.1749   46.6926 H      1024        0    0.0000
   6148 H        1236.9086 -128.8889   45.5675 H      1024        0    0.0000
   6149 H        1234.8961 -127.9869   46.3039 H      1024        0    0.0000
   6150 H        1234.2310 -129.0126   45.0373 H      1024        0    0.0000
   6151 C        1233.9318 -129.7975   47.0533 C.3    1025        0    0.0000
   6152 C        1232.4691 -129.3398   47.0670 C.3    1025        0    0.0000
   6153 H        1233.9874 -130.8731   46.8444 H      1025        0    0.0000
   6154 H        1234.3831 -129.6448   48.0414 H      1025        0    0.0000
   6155 H        1232.1385 -129.1061   46.0474 H      1025        0    0.0000
   6156 H        1231.8248 -130.1504   47.4292 H      1025        0    0.0000
   6157 C        1232.2499 -128.0778   47.9709 C.3    1026        0    0.0000
   6158 C        1231.0569 -127.2333   47.5100 C.3    1026        0    0.0000
   6159 H        1232.1003 -128.4065   49.0067 H      1026        0    0.0000
   6160 H        1233.1652 -127.4729   47.9613 H      1026        0    0.0000
   6161 H        1230.9318 -127.3202   46.4236 H      1026        0    0.0000
   6162 H        1230.1320 -127.6092   47.9647 H      1026        0    0.0000
   6163 C        1231.2225 -125.7190   47.8801 C.3    1027        0    0.0000
   6164 C        1230.0487 -125.1929   48.7135 C.3    1027        0    0.0000
   6165 H        1232.1626 -125.5905   48.4311 H      1027        0    0.0000
   6166 H        1231.3176 -125.1372   46.9550 H      1027        0    0.0000
   6167 H        1229.5192 -126.0288   49.1870 H      1027        0    0.0000
   6168 H        1230.4199 -124.5547   49.5250 H      1027        0    0.0000
   6169 C        1229.0288 -124.3720   47.8514 C.3    1028        0    0.0000
   6170 C        1227.6185 -124.3846   48.4513 C.3    1028        0    0.0000
   6171 H        1229.3909 -123.3401   47.7628 H      1028        0    0.0000
   6172 H        1229.0094 -124.7872   46.8360 H      1028        0    0.0000
   6173 H        1226.9119 -123.9072   47.7612 H      1028        0    0.0000
   6174 H        1227.2769 -125.4183   48.5869 H      1028        0    0.0000
   6175 C        1227.5536 -123.6456   49.8323 C.3    1029        0    0.0000
   6176 C        1226.2719 -123.9726   50.6064 C.3    1029        0    0.0000
   6177 H        1228.4330 -123.9263   50.4252 H      1029        0    0.0000
   6178 H        1227.6228 -122.5647   49.6584 H      1029        0    0.0000
   6179 H        1225.4315 -123.3932   50.2044 H      1029        0    0.0000
   6180 H        1226.0145 -125.0313   50.4780 H      1029        0    0.0000
   6181 C        1226.4088 -123.6681   52.1381 C.3    1030        0    0.0000
   6182 C        1225.3062 -122.7320   52.6450 C.3    1030        0    0.0000
   6183 H        1226.3816 -124.6153   52.6908 H      1030        0    0.0000
   6184 H        1227.3945 -123.2233   52.3234 H      1030        0    0.0000
   6185 H        1225.7294 -121.9908   53.3343 H      1030        0    0.0000
   6186 H        1224.8735 -122.1718   51.8069 H      1030        0    0.0000
   6187 C        1224.1591 -123.5081   53.3795 C.3    1031        0    0.0000
   6188 C        1222.8029 -122.8074   53.2419 C.3    1031        0    0.0000
   6189 H        1224.1008 -124.5241   52.9695 H      1031        0    0.0000
   6190 H        1224.4238 -123.6108   54.4392 H      1031        0    0.0000
   6191 H        1222.4912 -122.7947   52.1902 H      1031        0    0.0000
   6192 H        1222.0342 -123.3645   53.7916 H      1031        0    0.0000
   6193 C        1222.8385 -121.3341   53.7763 C.3    1032        0    0.0000
   6194 C        1221.6224 -120.5209   53.3191 C.3    1032        0    0.0000
   6195 H        1222.8857 -121.3565   54.8720 H      1032        0    0.0000
   6196 H        1223.7631 -120.8549   53.4308 H      1032        0    0.0000
   6197 H        1221.3248 -120.8254   52.3080 H      1032        0    0.0000
   6198 H        1220.7662 -120.7240   53.9742 H      1032        0    0.0000
   6199 C        1221.9047 -118.9789   53.3199 C.3    1033        0    0.0000
   6200 C        1220.8347 -118.1929   54.0858 C.3    1033        0    0.0000
   6201 H        1222.8922 -118.8003   53.7633 H      1033        0    0.0000
   6202 H        1221.9575 -118.6286   52.2816 H      1033        0    0.0000
   6203 H        1220.3816 -118.8279   54.8572 H      1033        0    0.0000
   6204 H        1221.2930 -117.3430   54.6065 H      1033        0    0.0000
   6205 C        1219.7025 -117.6571   53.1432 C.3    1034        0    0.0000
   6206 C        1218.3490 -117.5627   53.8564 C.3    1034        0    0.0000
   6207 H        1219.9966 -116.6712   52.7623 H      1034        0    0.0000
   6208 H        1219.6235 -118.3204   52.2729 H      1034        0    0.0000
   6209 H        1217.5380 -117.5153   53.1192 H      1034        0    0.0000
   6210 H        1218.1766 -118.4646   54.4569 H      1034        0    0.0000
   6211 C        1218.2562 -116.3078   54.7913 C.3    1035        0    0.0000
   6212 C        1217.2262 -116.4927   55.9111 C.3    1035        0    0.0000
   6213 H        1219.2469 -116.1123   55.2200 H      1035        0    0.0000
   6214 H        1217.9978 -115.4321   54.1830 H      1035        0    0.0000
   6215 H        1216.2109 -116.4693   55.4958 H      1035        0    0.0000
   6216 H        1217.3524 -117.4764   56.3797 H      1035        0    0.0000
   6217 C        1217.3455 -115.3873   57.0163 C.3    1036        0    0.0000
   6218 C        1215.9835 -114.7943   57.3941 C.3    1036        0    0.0000
   6219 H        1217.8247 -115.8228   57.9017 H      1036        0    0.0000
   6220 H        1218.0129 -114.5956   56.6540 H      1036        0    0.0000
   6221 H        1216.0800 -113.7168   57.5768 H      1036        0    0.0000
   6222 H        1215.2786 -114.9109   56.5617 H      1036        0    0.0000
   6223 C        1215.3745 -115.4706   58.6705 C.3    1037        0    0.0000
   6224 C        1213.9246 -115.0407   58.9199 C.3    1037        0    0.0000
   6225 H        1215.4290 -116.5601   58.5536 H      1037        0    0.0000
   6226 H        1215.9968 -115.2152   59.5371 H      1037        0    0.0000
   6227 H        1213.4927 -114.6237   58.0017 H      1037        0    0.0000
   6228 H        1213.3146 -115.9125   59.1874 H      1037        0    0.0000
   6229 C        1213.8094 -113.9736   60.0624 C.3    1038        0    0.0000
   6230 C        1212.8146 -112.8595   59.7186 C.3    1038        0    0.0000
   6231 H        1213.5044 -114.4777   60.9877 H      1038        0    0.0000
   6232 H        1214.8027 -113.5466   60.2489 H      1038        0    0.0000
   6233 H        1213.0100 -112.4795   58.7080 H      1038        0    0.0000
   6234 H        1211.7921 -113.2566   59.7136 H      1038        0    0.0000
   6235 C        1212.8878 -111.6644   60.7304 C.3    1039        0    0.0000
   6236 C        1211.5071 -111.0686   61.0265 C.3    1039        0    0.0000
   6237 H        1213.3529 -112.0158   61.6597 H      1039        0    0.0000
   6238 H        1213.5500 -110.8927   60.3188 H      1039        0    0.0000
   6239 H        1210.7266 -111.8161   60.8380 H      1039        0    0.0000
   6240 H        1211.4340 -110.7973   62.0871 H      1039        0    0.0000
   6241 C        1211.2097 -109.7977   60.1583 C.3    1040        0    0.0000
   6242 C        1209.7104 -109.4907   60.0725 C.3    1040        0    0.0000
   6243 H        1211.7449 -108.9423   60.5886 H      1040        0    0.0000
   6244 H        1211.6200 -109.9526   59.1526 H      1040        0    0.0000
   6245 H        1209.4348 -109.2471   59.0390 H      1040        0    0.0000
   6246 H        1209.1283 -110.3771   60.3533 H      1040        0    0.0000
   6247 C        1209.2943 -108.2980   61.0009 C.3    1041        0    0.0000
   6248 C        1208.0183 -108.5980   61.7953 C.3    1041        0    0.0000
   6249 H        1210.1217 -108.0787   61.6871 H      1041        0    0.0000
   6250 H        1209.1512 -107.4026   60.3835 H      1041        0    0.0000
   6251 H        1207.1462 -108.5717   61.1302 H      1041        0    0.0000
   6252 H        1208.0653 -109.6112   62.2136 H      1041        0    0.0000
   6253 C        1207.7930 -107.5786   62.9647 C.3    1042        0    0.0000
   6254 C        1206.3497 -107.0650   63.0175 C.3    1042        0    0.0000
   6255 H        1208.0541 -108.0648   63.9128 H      1042        0    0.0000
   6256 H        1208.4869 -106.7382   62.8399 H      1042        0    0.0000
   6257 H        1206.3354 -106.0156   63.3372 H      1042        0    0.0000
   6258 H        1205.9027 -107.0955   62.0162 H      1042        0    0.0000
   6259 C        1205.4563 -107.9034   63.9955 C.3    1043        0    0.0000
   6260 C        1204.0219 -107.3693   64.0742 C.3    1043        0    0.0000
   6261 H        1205.4508 -108.9484   63.6616 H      1043        0    0.0000
   6262 H        1205.9166 -107.8934   64.9912 H      1043        0    0.0000
   6263 H        1203.8167 -106.7148   63.2180 H      1043        0    0.0000
   6264 H        1203.3076 -108.1996   64.0141 H      1043        0    0.0000
   6265 C        1203.7574 -106.5696   65.3963 C.3    1044        0    0.0000
   6266 C        1202.9752 -105.2757   65.1460 C.3    1044        0    0.0000
   6267 H        1203.2073 -107.2127   66.0945 H      1044        0    0.0000
   6268 H        1204.7202 -106.3416   65.8702 H      1044        0    0.0000
   6269 H        1203.5078 -104.6485   64.4203 H      1044        0    0.0000
   6270 H        1201.9974 -105.5064   64.7054 H      1044        0    0.0000
   6271 C        1202.7550 -104.4508   66.4608 C.3    1045        0    0.0000
   6272 C        1201.4340 -103.6738   66.4446 C.3    1045        0    0.0000
   6273 H        1202.7776 -105.1367   67.3166 H      1045        0    0.0000
   6274 H        1203.5968 -103.7589   66.5893 H      1045        0    0.0000
   6275 H        1200.7417 -104.1239   65.7224 H      1045        0    0.0000
   6276 H        1200.9491 -103.7358   67.4267 H      1045        0    0.0000
   6277 C        1201.6373 -102.1637   66.0761 C.3    1046        0    0.0000
   6278 C        1200.3097 -101.4026   65.9915 C.3    1046        0    0.0000
   6279 H        1202.2888 -101.7009   66.8275 H      1046        0    0.0000
   6280 H        1202.1678 -102.1019   65.1179 H      1046        0    0.0000
   6281 H        1200.3505 -100.6640   65.1813 H      1046        0    0.0000
   6282 H        1199.4944 -102.0945   65.7463 H      1046        0    0.0000
   6283 C        1199.9612 -100.6653   67.3303 C.3    1047        0    0.0000
   6284 C        1198.4503 -100.5935   67.5777 C.3    1047        0    0.0000
   6285 H        1200.4537 -101.1871   68.1601 H      1047        0    0.0000
   6286 H        1200.3855  -99.6541   67.2979 H      1047        0    0.0000
   6287 H        1197.9769  -99.9467   66.8285 H      1047        0    0.0000
   6288 H        1198.0027 -101.5884   67.4630 H      1047        0    0.0000
   6289 C        1198.1075 -100.0466   69.0063 C.3    1048        0    0.0000
   6290 C        1196.8108  -99.2296   69.0199 C.3    1048        0    0.0000
   6291 H        1198.0259 -100.8935   69.6989 H      1048        0    0.0000
   6292 H        1198.9441  -99.4307   69.3592 H      1048        0    0.0000
   6293 H        1196.8311  -98.4785   68.2206 H      1048        0    0.0000
   6294 H        1195.9528  -99.8824   68.8172 H      1048        0    0.0000
   6295 C        1196.5807  -98.5033   70.3900 C.3    1049        0    0.0000
   6296 C        1195.2012  -97.8402   70.4715 C.3    1049        0    0.0000
   6297 H        1196.6956  -99.2334   71.2008 H      1049        0    0.0000
   6298 H        1197.3680  -97.7521   70.5285 H      1049        0    0.0000
   6299 H        1194.5276  -98.2809   69.7262 H      1049        0    0.0000
   6300 H        1194.7506  -98.0285   71.4538 H      1049        0    0.0000
   6301 C        1195.2715  -96.2919   70.2361 C.3    1050        0    0.0000
   6302 C        1193.8816  -95.6476   70.1901 C.3    1050        0    0.0000
   6303 H        1195.8698  -95.8394   71.0368 H      1050        0    0.0000
   6304 H        1195.8058  -96.1009   69.2972 H      1050        0    0.0000
   6305 H        1193.8843  -94.7962   69.4984 H      1050        0    0.0000
   6306 H        1193.1470  -96.3651   69.8038 H      1050        0    0.0000
   6307 C        1193.4098  -95.1514   71.6003 C.3    1051        0    0.0000
   6308 C        1191.9181  -94.7993   71.6232 C.3    1051        0    0.0000
   6309 H        1193.6232  -95.9331   72.3399 H      1051        0    0.0000
   6310 H        1194.0072  -94.2765   71.8855 H      1051        0    0.0000
   6311 H        1191.7192  -93.9607   70.9447 H      1051        0    0.0000
   6312 H        1191.3260  -95.6475   71.2578 H      1051        0    0.0000
   6313 C        1191.4200  -94.4166   73.0594 C.3    1052        0    0.0000
   6314 C        1190.1742  -93.5246   73.0237 C.3    1052        0    0.0000
   6315 H        1191.2076  -95.3372   73.6170 H      1052        0    0.0000
   6316 H        1192.2328  -93.9066   73.5913 H      1052        0    0.0000
   6317 H        1190.4176  -92.5567   72.5682 H      1052        0    0.0000
   6318 H        1189.4010  -93.9831   72.3948 H      1052        0    0.0000
   6319 C        1189.5807  -93.2754   74.4531 C.3    1053        0    0.0000
   6320 C        1188.3501  -92.3625   74.4202 C.3    1053        0    0.0000
   6321 H        1189.3198  -94.2423   74.9010 H      1053        0    0.0000
   6322 H        1190.3596  -92.8343   75.0873 H      1053        0    0.0000
   6323 H        1187.8473  -92.4437   73.4485 H      1053        0    0.0000
   6324 H        1187.6241  -92.6821   75.1782 H      1053        0    0.0000
   6325 C        1188.7179  -90.8601   74.6747 C.3    1054        0    0.0000
   6326 C        1187.4757  -89.9702   74.7945 C.3    1054        0    0.0000
   6327 H        1189.3181  -90.7932   75.5905 H      1054        0    0.0000
   6328 H        1189.3551  -90.5081   73.8540 H      1054        0    0.0000
   6329 H        1186.9669  -89.9022   73.8249 H      1054        0    0.0000
   6330 H        1186.7595  -90.4164   75.4955 H      1054        0    0.0000
   6331 C        1187.8267  -88.5228   75.2836 C.3    1055        0    0.0000
   6332 C        1186.5897  -87.6212   75.3646 C.3    1055        0    0.0000
   6333 H        1188.3088  -88.5890   76.2667 H      1055        0    0.0000
   6334 H        1188.5651  -88.0875   74.5990 H      1055        0    0.0000
   6335 H        1186.8645  -86.5843   75.1350 H      1055        0    0.0000
   6336 H        1185.8522  -87.9259   74.6118 H      1055        0    0.0000
   6337 C        1185.9153  -87.6639   76.7792 C.3    1056        0    0.0000
   6338 C        1184.3866  -87.5907   76.6964 C.3    1056        0    0.0000
   6339 H        1186.2207  -88.5861   77.2889 H      1056        0    0.0000
   6340 H        1186.2999  -86.8301   77.3795 H      1056        0    0.0000
   6341 H        1184.0305  -88.1443   75.8188 H      1056        0    0.0000
   6342 H        1183.9388  -88.0711   77.5750 H      1056        0    0.0000
   6343 C        1183.8665  -86.1145   76.6077 C.3    1057        0    0.0000
   6344 C        1182.3835  -85.9978   76.9773 C.3    1057        0    0.0000
   6345 H        1184.4707  -85.4861   77.2737 H      1057        0    0.0000
   6346 H        1184.0306  -85.7423   75.5888 H      1057        0    0.0000
   6347 H        1181.7816  -86.6425   76.3251 H      1057        0    0.0000
   6348 H        1182.2229  -86.3502   78.0038 H      1057        0    0.0000
   6349 C        1181.8560  -84.5263   76.8598 C.3    1058        0    0.0000
   6350 C        1180.5660  -84.3062   77.6578 C.3    1058        0    0.0000
   6351 H        1182.6373  -83.8414   77.2116 H      1058        0    0.0000
   6352 H        1181.6873  -84.2947   75.8008 H      1058        0    0.0000
   6353 H        1179.9099  -85.1802   77.5609 H      1058        0    0.0000
   6354 H        1180.7970  -84.2027   78.7253 H      1058        0    0.0000
   6355 C        1179.7843  -83.0327   77.1841 C.3    1059        0    0.0000
   6356 C        1178.6886  -82.6220   78.1739 C.3    1059        0    0.0000
   6357 H        1180.4973  -82.2098   77.0495 H      1059        0    0.0000
   6358 H        1179.3453  -83.2335   76.1989 H      1059        0    0.0000
   6359 H        1178.1058  -83.5010   78.4758 H      1059        0    0.0000
   6360 H        1179.1401  -82.2146   79.0871 H      1059        0    0.0000
   6361 C        1177.7141  -81.5521   77.5714 C.3    1060        0    0.0000
   6362 C        1176.6227  -81.1361   78.5638 C.3    1060        0    0.0000
   6363 H        1178.2976  -80.6753   77.2647 H      1060        0    0.0000
   6364 H        1177.2587  -81.9616   76.6612 H      1060        0    0.0000
   6365 H        1175.6433  -81.1413   78.0697 H      1060        0    0.0000
   6366 H        1176.5651  -81.8611   79.3851 H      1060        0    0.0000
   6367 C        1176.8781  -79.7110   79.1647 C.3    1061        0    0.0000
   6368 C        1175.9033  -79.3756   80.2991 C.3    1061        0    0.0000
   6369 H        1177.9114  -79.6610   79.5297 H      1061        0    0.0000
   6370 H        1176.7911  -78.9680   78.3622 H      1061        0    0.0000
   6371 H        1174.8910  -79.7058   80.0350 H      1061        0    0.0000
   6372 H        1176.1846  -79.9192   81.2095 H      1061        0    0.0000
   6373 C        1175.8676  -77.8411   80.6174 C.3    1062        0    0.0000
   6374 C        1174.5924  -77.4320   81.3629 C.3    1062        0    0.0000
   6375 H        1176.7512  -77.5830   81.2141 H      1062        0    0.0000
   6376 H        1175.9486  -77.2829   79.6765 H      1062        0    0.0000
   6377 H        1173.7129  -77.8607   80.8669 H      1062        0    0.0000
   6378 H        1174.6071  -77.8358   82.3828 H      1062        0    0.0000
   6379 C        1174.4215  -75.8755   81.4381 C.3    1063        0    0.0000
   6380 C        1173.0438  -75.4675   81.9718 C.3    1063        0    0.0000
   6381 H        1175.2103  -75.4637   82.0796 H      1063        0    0.0000
   6382 H        1174.5771  -75.4539   80.4373 H      1063        0    0.0000
   6383 H        1172.7548  -74.4923   81.5607 H      1063        0    0.0000
   6384 H        1172.2842  -76.1865   81.6408 H      1063        0    0.0000
   6385 C        1173.0135  -75.3851   83.5370 C.3    1064        0    0.0000
   6386 C        1171.6011  -75.1383   84.0784 C.3    1064        0    0.0000
   6387 H        1173.4160  -76.3191   83.9482 H      1064        0    0.0000
   6388 H        1173.6865  -74.5819   83.8619 H      1064        0    0.0000
   6389 H        1170.9158  -75.9106   83.7076 H      1064        0    0.0000
   6390 H        1171.5990  -75.2145   85.1728 H      1064        0    0.0000
   6391 C        1171.0452  -73.7309   83.6690 C.3    1065        0    0.0000
   6392 C        1169.6295  -73.4875   84.2040 C.3    1065        0    0.0000
   6393 H        1171.7273  -72.9583   84.0449 H      1065        0    0.0000
   6394 H        1171.0524  -73.6524   82.5748 H      1065        0    0.0000
   6395 H        1168.9000  -74.0482   83.6065 H      1065        0    0.0000
   6396 H        1169.5469  -73.8598   85.2327 H      1065        0    0.0000
   6397 C        1169.2395  -71.9693   84.1832 C.3    1066        0    0.0000
   6398 C        1167.7345  -71.7534   84.3770 C.3    1066        0    0.0000
   6399 H        1169.7986  -71.4498   84.9713 H      1066        0    0.0000
   6400 H        1169.5623  -71.5343   83.2291 H      1066        0    0.0000
   6401 H        1167.3467  -71.0865   83.5969 H      1066        0    0.0000
   6402 H        1167.2010  -72.7061   84.2708 H      1066        0    0.0000
   6403 C        1167.3981  -71.1395   85.7796 C.3    1067        0    0.0000
   6404 C        1165.9329  -70.7020   85.8859 C.3    1067        0    0.0000
   6405 H        1167.6260  -71.8820   86.5545 H      1067        0    0.0000
   6406 H        1168.0602  -70.2836   85.9591 H      1067        0    0.0000
   6407 H        1165.3401  -71.1779   85.0951 H      1067        0    0.0000
   6408 H        1165.5092  -71.0354   86.8413 H      1067        0    0.0000
   6409 C        1165.7677  -69.1470   85.7751 C.3    1068        0    0.0000
   6410 C        1164.3721  -68.6793   86.2026 C.3    1068        0    0.0000
   6411 H        1166.5326  -68.6650   86.3965 H      1068        0    0.0000
   6412 H        1165.9655  -68.8432   84.7398 H      1068        0    0.0000
   6413 H        1163.6141  -69.3947   85.8600 H      1068        0    0.0000
   6414 H        1164.3044  -68.6487   87.2971 H      1068        0    0.0000
   6415 C        1164.0211  -67.2608   85.6348 C.3    1069        0    0.0000
   6416 C        1162.9153  -66.5700   86.4404 C.3    1069        0    0.0000
   6417 H        1164.9287  -66.6446   85.6369 H      1069        0    0.0000
   6418 H        1163.7136  -67.3655   84.5869 H      1069        0    0.0000
   6419 H        1162.0067  -67.1849   86.4362 H      1069        0    0.0000
   6420 H        1163.2216  -66.4678   87.4891 H      1069        0    0.0000
   6421 C        1162.5669  -65.1500   85.8751 C.3    1070        0    0.0000
   6422 C        1161.2719  -64.5886   86.4730 C.3    1070        0    0.0000
   6423 H        1163.4030  -64.4713   86.0842 H      1070        0    0.0000
   6424 H        1162.4797  -65.2156   84.7835 H      1070        0    0.0000
   6425 H        1160.6702  -64.1141   85.6881 H      1070        0    0.0000
   6426 H        1160.6647  -65.4032   86.8866 H      1070        0    0.0000
   6427 C        1161.5463  -63.5383   87.6039 C.3    1071        0    0.0000
   6428 C        1160.4181  -63.4927   88.6404 C.3    1071        0    0.0000
   6429 H        1162.4967  -63.7854   88.0930 H      1071        0    0.0000
   6430 H        1161.6757  -62.5502   87.1450 H      1071        0    0.0000
   6431 H        1160.0751  -64.5094   88.8681 H      1071        0    0.0000
   6432 H        1160.7887  -63.0671   89.5812 H      1071        0    0.0000
   6433 C        1159.1945  -62.6445   88.1498 C.3    1072        0    0.0000
   6434 C        1158.0120  -62.7141   89.1224 C.3    1072        0    0.0000
   6435 H        1159.5148  -61.6032   88.0211 H      1072        0    0.0000
   6436 H        1158.8887  -63.0046   87.1597 H      1072        0    0.0000
   6437 H        1157.0720  -62.8121   88.5652 H      1072        0    0.0000
   6438 H        1158.0975  -63.6060   89.7553 H      1072        0    0.0000
   6439 C        1157.9243  -61.4481   90.0426 C.3    1073        0    0.0000
   6440 C        1156.4807  -60.9726   90.2407 C.3    1073        0    0.0000
   6441 H        1158.3790  -61.6839   91.0127 H      1073        0    0.0000
   6442 H        1158.5270  -60.6459   89.5989 H      1073        0    0.0000
   6443 H        1155.9232  -61.0607   89.2999 H      1073        0    0.0000
   6444 H        1155.9705  -61.6135   90.9704 H      1073        0    0.0000
   6445 C        1156.4070  -59.4866   90.7346 C.3    1074        0    0.0000
   6446 C        1154.9971  -59.0954   91.1909 C.3    1074        0    0.0000
   6447 H        1157.1198  -59.3517   91.5576 H      1074        0    0.0000
   6448 H        1156.7358  -58.8271   89.9218 H      1074        0    0.0000
   6449 H        1154.3528  -58.9272   90.3191 H      1074        0    0.0000
   6450 H        1154.5458  -59.9157   91.7627 H      1074        0    0.0000
   6451 C        1154.9967  -57.8020   92.0766 C.3    1075        0    0.0000
   6452 C        1153.6598  -57.0552   92.0135 C.3    1075        0    0.0000
   6453 H        1155.2220  -58.0830   93.1129 H      1075        0    0.0000
   6454 H        1155.8104  -57.1455   91.7442 H      1075        0    0.0000
   6455 H        1153.1912  -57.2052   91.0330 H      1075        0    0.0000
   6456 H        1152.9661  -57.4618   92.7597 H      1075        0    0.0000
   6457 C        1153.8263  -55.5166   92.2638 C.3    1076        0    0.0000
   6458 C        1152.5416  -54.8725   92.7968 C.3    1076        0    0.0000
   6459 H        1154.6478  -55.3608   92.9739 H      1076        0    0.0000
   6460 H        1154.1262  -55.0359   91.3244 H      1076        0    0.0000
   6461 H        1151.8711  -55.6441   93.1949 H      1076        0    0.0000
   6462 H        1152.7765  -54.1988   93.6302 H      1076        0    0.0000
   6463 C        1151.7802  -54.0626   91.6916 C.3    1077        0    0.0000
   6464 C        1150.2794  -53.9520   91.9827 C.3    1077        0    0.0000
   6465 H        1152.2238  -53.0621   91.6176 H      1077        0    0.0000
   6466 H        1151.9404  -54.5506   90.7221 H      1077        0    0.0000
   6467 H        1149.7234  -53.8191   91.0462 H      1077        0    0.0000
   6468 H        1149.9149  -54.8819   92.4363 H      1077        0    0.0000
   6469 C        1149.9467  -52.7574   92.9416 C.3    1078        0    0.0000
   6470 C        1148.5192  -52.8366   93.4943 C.3    1078        0    0.0000
   6471 H        1150.6698  -52.7544   93.7667 H      1078        0    0.0000
   6472 H        1150.0872  -51.8162   92.3960 H      1078        0    0.0000
   6473 H        1147.8016  -52.5132   92.7302 H      1078        0    0.0000
   6474 H        1148.2689  -53.8757   93.7422 H      1078        0    0.0000
   6475 C        1148.3278  -51.9518   94.7741 C.3    1079        0    0.0000
   6476 C        1147.1320  -51.0011   94.6495 C.3    1079        0    0.0000
   6477 H        1148.1964  -52.6094   95.6423 H      1079        0    0.0000
   6478 H        1149.2469  -51.3791   94.9489 H      1079        0    0.0000
   6479 H        1146.9753  -50.7297   93.5981 H      1079        0    0.0000
   6480 H        1146.2159  -51.5027   94.9852 H      1079        0    0.0000
   6481 C        1147.3258  -49.6897   95.4863 C.3    1080        0    0.0000
   6482 C        1145.9924  -49.0117   95.8208 C.3    1080        0    0.0000
   6483 H        1147.8647  -49.9359   96.4097 H      1080        0    0.0000
   6484 H        1147.9666  -49.0014   94.9216 H      1080        0    0.0000
   6485 H        1145.1852  -49.7543   95.8313 H      1080        0    0.0000
   6486 H        1146.0337  -48.5768   96.8271 H      1080        0    0.0000
   6487 C        1145.6268  -47.8824   94.7969 C.3    1081        0    0.0000
   6488 C        1144.1399  -47.5134   94.8453 C.3    1081        0    0.0000
   6489 H        1146.2407  -46.9988   95.0107 H      1081        0    0.0000
   6490 H        1145.8984  -48.2182   93.7883 H      1081        0    0.0000
   6491 H        1143.7509  -47.3854   93.8276 H      1081        0    0.0000
   6492 H        1143.5652  -48.3283   95.3023 H      1081        0    0.0000
   6493 C        1143.8807  -46.1962   95.6548 C.3    1082        0    0.0000
   6494 C        1142.4695  -46.1488   96.2508 C.3    1082        0    0.0000
   6495 H        1144.6292  -46.1190   96.4534 H      1082        0    0.0000
   6496 H        1144.0382  -45.3368   94.9915 H      1082        0    0.0000
   6497 H        1141.7599  -45.7654   95.5071 H      1082        0    0.0000
   6498 H        1142.1368  -47.1612   96.5109 H      1082        0    0.0000
   6499 C        1142.3953  -45.2477   97.5314 C.3    1083        0    0.0000
   6500 C        1141.2568  -44.2242   97.4563 C.3    1083        0    0.0000
   6501 H        1142.2649  -45.8917   98.4098 H      1083        0    0.0000
   6502 H        1143.3560  -44.7332   97.6578 H      1083        0    0.0000
   6503 H        1141.5947  -43.2563   97.8468 H      1083        0    0.0000
   6504 H        1140.9683  -44.0587   96.4109 H      1083        0    0.0000
   6505 C        1139.9928  -44.6812   98.2631 C.3    1084        0    0.0000
   6506 C        1138.7308  -43.9172   97.8475 C.3    1084        0    0.0000
   6507 H        1139.8474  -45.7581   98.1123 H      1084        0    0.0000
   6508 H        1140.1851  -44.5362   99.3334 H      1084        0    0.0000
   6509 H        1138.5835  -43.9957   96.7632 H      1084        0    0.0000
   6510 H        1137.8474  -44.3655   98.3187 H      1084        0    0.0000
   6511 C        1138.7980  -42.4010   98.2398 C.3    1085        0    0.0000
   6512 C        1137.6816  -41.5811   97.5832 C.3    1085        0    0.0000
   6513 H        1138.7354  -42.3150   99.3316 H      1085        0    0.0000
   6514 H        1139.7780  -42.0033   97.9482 H      1085        0    0.0000
   6515 H        1137.5032  -41.9390   96.5617 H      1085        0    0.0000
   6516 H        1136.7422  -41.7167   98.1332 H      1085        0    0.0000
   6517 C        1138.0203  -40.0514   97.5308 C.3    1086        0    0.0000
   6518 C        1136.8361  -39.1792   97.9623 C.3    1086        0    0.0000
   6519 H        1138.8850  -39.8583   98.1776 H      1086        0    0.0000
   6520 H        1138.3262  -39.7917   96.5098 H      1086        0    0.0000
   6521 H        1136.1951  -39.7332   98.6591 H      1086        0    0.0000
   6522 H        1137.1971  -38.2948   98.5018 H      1086        0    0.0000
   6523 C        1135.9695  -38.7087   96.7435 C.3    1087        0    0.0000
   6524 C        1134.5374  -38.3486   97.1537 C.3    1087        0    0.0000
   6525 H        1136.4561  -37.8432   96.2769 H      1087        0    0.0000
   6526 H        1135.9558  -39.5064   95.9904 H      1087        0    0.0000
   6527 H        1133.9141  -38.2108   96.2615 H      1087        0    0.0000
   6528 H        1134.0914  -39.1720   97.7254 H      1087        0    0.0000
   6529 C        1134.4777  -37.0424   98.0184 C.3    1088        0    0.0000
   6530 C        1133.0928  -36.8171   98.6354 C.3    1088        0    0.0000
   6531 H        1135.2356  -37.1065   98.8088 H      1088        0    0.0000
   6532 H        1134.7518  -36.1878   97.3875 H      1088        0    0.0000
   6533 H        1132.3448  -36.6874   97.8435 H      1088        0    0.0000
   6534 H        1132.7904  -37.6993   99.2131 H      1088        0    0.0000
   6535 C        1133.0577  -35.5621   99.5742 C.3    1089        0    0.0000
   6536 C        1131.7456  -34.7798   99.4493 C.3    1089        0    0.0000
   6537 H        1133.2019  -35.8916  100.6106 H      1089        0    0.0000
   6538 H        1133.9075  -34.9130   99.3288 H      1089        0    0.0000
   6539 H        1131.4492  -34.7082   98.3955 H      1089        0    0.0000
   6540 H        1130.9391  -35.3128   99.9681 H      1089        0    0.0000
   6541 C        1131.8579  -33.3329  100.0421 C.3    1090        0    0.0000
   6542 C        1130.4872  -32.6717  100.2241 C.3    1090        0    0.0000
   6543 H        1132.3813  -33.3848  101.0048 H      1090        0    0.0000
   6544 H        1132.4830  -32.7255   99.3760 H      1090        0    0.0000
   6545 H        1129.7051  -33.4385  100.2868 H      1090        0    0.0000
   6546 H        1130.4603  -32.1162  101.1697 H      1090        0    0.0000
   6547 C        1130.1403  -31.6908   99.0516 C.3    1091        0    0.0000
   6548 C        1128.6637  -31.2799   99.0556 C.3    1091        0    0.0000
   6549 H        1130.7782  -30.8022   99.1335 H      1091        0    0.0000
   6550 H        1130.3937  -32.1739   98.0997 H      1091        0    0.0000
   6551 H        1128.2625  -31.3083   98.0349 H      1091        0    0.0000
   6552 H        1128.0760  -31.9945   99.6450 H      1091        0    0.0000
   6553 C        1128.4485  -29.8426   99.6432 C.3    1092        0    0.0000
   6554 C        1127.0243  -29.6384  100.1717 C.3    1092        0    0.0000
   6555 H        1129.1755  -29.6770  100.4479 H      1092        0    0.0000
   6556 H        1128.6693  -29.1046   98.8623 H      1092        0    0.0000
   6557 H        1126.2974  -29.7986   99.3657 H      1092        0    0.0000
   6558 H        1126.8014  -30.3800  100.9489 H      1092        0    0.0000
   6559 C        1126.8112  -28.2036  100.7663 C.3    1093        0    0.0000
   6560 C        1125.3502  -27.7486  100.6761 C.3    1093        0    0.0000
   6561 H        1127.1417  -28.2016  101.8122 H      1093        0    0.0000
   6562 H        1127.4584  -27.4988  100.2299 H      1093        0    0.0000
   6563 H        1124.9341  -28.0123   99.6958 H      1093        0    0.0000
   6564 H        1124.7457  -28.2732  101.4263 H      1093        0    0.0000
   6565 C        1125.1947  -26.2037  100.8919 C.3    1094        0    0.0000
   6566 C        1123.7386  -25.7961  101.1432 C.3    1094        0    0.0000
   6567 H        1125.8218  -25.9002  101.7393 H      1094        0    0.0000
   6568 H        1125.5842  -25.6823  100.0089 H      1094        0    0.0000
   6569 H        1123.1667  -25.8490  100.2086 H      1094        0    0.0000
   6570 H        1123.2666  -26.4982  101.8417 H      1094        0    0.0000
   6571 C        1123.6199  -24.3460  101.7269 C.3    1095        0    0.0000
   6572 C        1122.2815  -23.6864  101.3759 C.3    1095        0    0.0000
   6573 H        1123.7423  -24.3921  102.8160 H      1095        0    0.0000
   6574 H        1124.4498  -23.7408  101.3418 H      1095        0    0.0000
   6575 H        1121.9404  -24.0284  100.3909 H      1095        0    0.0000
   6576 H        1121.5128  -23.9883  102.0979 H      1095        0    0.0000
   6577 C        1122.3759  -22.1217  101.3628 C.3    1096        0    0.0000
   6578 C        1121.0231  -21.4558  101.6385 C.3    1096        0    0.0000
   6579 H        1123.1106  -21.8054  102.1138 H      1096        0    0.0000
   6580 H        1122.7625  -21.7989  100.3883 H      1096        0    0.0000
   6581 H        1120.3439  -22.1696  102.1208 H      1096        0    0.0000
   6582 H        1121.1506  -20.6204  102.3378 H      1096        0    0.0000
   6583 C        1120.3468  -20.9202  100.3295 C.3    1097        0    0.0000
   6584 C        1118.8231  -20.8190  100.4625 C.3    1097        0    0.0000
   6585 H        1120.7697  -19.9366  100.0900 H      1097        0    0.0000
   6586 H        1120.6084  -21.5865   99.4982 H      1097        0    0.0000
   6587 H        1118.3411  -21.1700   99.5415 H      1097        0    0.0000
   6588 H        1118.4719  -21.4724  101.2706 H      1097        0    0.0000
   6589 C        1118.3484  -19.3539  100.7545 C.3    1098        0    0.0000
   6590 C        1117.0961  -19.3141  101.6372 C.3    1098        0    0.0000
   6591 H        1119.1670  -18.8066  101.2382 H      1098        0    0.0000
   6592 H        1118.1522  -18.8489   99.8004 H      1098        0    0.0000
   6593 H        1116.2236  -19.6585  101.0682 H      1098        0    0.0000
   6594 H        1117.2111  -20.0017  102.4843 H      1098        0    0.0000
   6595 C        1116.8037  -17.8764  102.1894 C.3    1099        0    0.0000
   6596 C        1115.4307  -17.3542  101.7518 C.3    1099        0    0.0000
   6597 H        1116.8661  -17.8988  103.2844 H      1099        0    0.0000
   6598 H        1117.5924  -17.1973  101.8427 H      1099        0    0.0000
   6599 H        1115.1270  -17.8352  100.8137 H      1099        0    0.0000
   6600 H        1114.6726  -17.6163  102.5002 H      1099        0    0.0000
   6601 C        1115.4235  -15.8000  101.5481 C.3    1100        0    0.0000
   6602 C        1114.1102  -15.1595  102.0116 C.3    1100        0    0.0000
   6603 H        1116.2679  -15.3672  102.0987 H      1100        0    0.0000
   6604 H        1115.5944  -15.5816  100.4867 H      1100        0    0.0000
   6605 H        1113.5911  -15.8284  102.7089 H      1100        0    0.0000
   6606 H        1114.3171  -14.2319  102.5596 H      1100        0    0.0000
   6607 C        1113.1521  -14.8357  100.8138 C.3    1101        0    0.0000
   6608 C        1111.9393  -14.0052  101.2483 C.3    1101        0    0.0000
   6609 H        1113.7188  -14.2990  100.0429 H      1101        0    0.0000
   6610 H        1112.8199  -15.7785  100.3618 H      1101        0    0.0000
   6611 H        1111.0310  -14.3836  100.7631 H      1101        0    0.0000
   6612 H        1111.7834  -14.1044  102.3297 H      1101        0    0.0000
   6613 C        1112.1035  -12.4860  100.8986 C.3    1102        0    0.0000
   6614 C        1110.9816  -11.6284  101.4943 C.3    1102        0    0.0000
   6615 H        1113.0773  -12.1413  101.2685 H      1102        0    0.0000
   6616 H        1112.1234  -12.3743   99.8075 H      1102        0    0.0000
   6617 H        1110.0217  -11.8911  101.0327 H      1102        0    0.0000
   6618 H        1110.8813  -11.8326  102.5675 H      1102        0    0.0000
   6619 C        1111.2357  -10.0945  101.2934 C.3    1103        0    0.0000
   6620 C        1109.9318   -9.2898  101.2552 C.3    1103        0    0.0000
   6621 H        1111.8772   -9.7329  102.1065 H      1103        0    0.0000
   6622 H        1111.7957   -9.9480  100.3615 H      1103        0    0.0000
   6623 H        1109.9742   -8.5427  100.4533 H      1103        0    0.0000
   6624 H        1109.0880   -9.9518  101.0246 H      1103        0    0.0000
   6625 C        1109.6445   -8.5592  102.6121 C.3    1104        0    0.0000
   6626 C        1108.1481   -8.3136  102.8342 C.3    1104        0    0.0000
   6627 H        1110.0522   -9.1632  103.4321 H      1104        0    0.0000
   6628 H        1110.1877   -7.6062  102.6225 H      1104        0    0.0000
   6629 H        1107.5590   -9.0526  102.2769 H      1104        0    0.0000
   6630 H        1107.8984   -8.4461  103.8942 H      1104        0    0.0000
   6631 C        1107.7090   -6.8766  102.3874 C.3    1105        0    0.0000
   6632 C        1106.4315   -6.8966  101.5406 C.3    1105        0    0.0000
   6633 H        1107.5580   -6.2590  103.2814 H      1105        0    0.0000
   6634 H        1108.5284   -6.4165  101.8213 H      1105        0    0.0000
   6635 H        1106.4382   -7.7651  100.8703 H      1105        0    0.0000
   6636 H        1105.5526   -7.0051  102.1881 H      1105        0    0.0000
   6637 C        1106.2683   -5.5960  100.6808 C.3    1106        0    0.0000
   6638 C        1104.9153   -4.9135  100.9109 C.3    1106        0    0.0000
   6639 H        1107.0845   -4.9052  100.9259 H      1106        0    0.0000
   6640 H        1106.3831   -5.8559   99.6212 H      1106        0    0.0000
   6641 H        1104.1416   -5.3976  100.3025 H      1106        0    0.0000
   6642 H        1104.6097   -5.0279  101.9584 H      1106        0    0.0000
   6643 C        1104.9529   -3.3863  100.5594 C.3    1107        0    0.0000
   6644 C        1103.5613   -2.8296  100.2388 C.3    1107        0    0.0000
   6645 H        1105.3914   -2.8398  101.4037 H      1107        0    0.0000
   6646 H        1105.6240   -3.2366   99.7047 H      1107        0    0.0000
   6647 H        1103.6145   -2.1613   99.3705 H      1107        0    0.0000
   6648 H        1102.8828   -3.6473   99.9661 H      1107        0    0.0000
   6649 C        1102.9440   -2.0420  101.4455 C.3    1108        0    0.0000
   6650 C        1101.4958   -1.6152  101.1808 C.3    1108        0    0.0000
   6651 H        1102.9923   -2.6732  102.3416 H      1108        0    0.0000
   6652 H        1103.5652   -1.1606  101.6474 H      1108        0    0.0000
   6653 H        1101.1184   -2.1072  100.2758 H      1108        0    0.0000
   6654 H        1100.8513   -1.9387  102.0073 H      1108        0    0.0000
   6655 C        1101.3558   -0.0634  101.0082 C.3    1109        0    0.0000
   6656 C        1100.2334    0.3139  100.0352 C.3    1109        0    0.0000
   6657 H        1101.1686    0.3862  101.9911 H      1109        0    0.0000
   6658 H        1102.3124    0.3406  100.6539 H      1109        0    0.0000
   6659 H        1100.5593    1.1353   99.3851 H      1109        0    0.0000
   6660 H        1100.0033   -0.5346   99.3790 H      1109        0    0.0000
   6661 C        1098.9233    0.7475  100.7788 C.3    1110        0    0.0000
   6662 C        1097.9041    1.3915   99.8323 C.3    1110        0    0.0000
   6663 H        1098.4832   -0.1332  101.2627 H      1110        0    0.0000
   6664 H        1099.1873    1.4485  101.5805 H      1110        0    0.0000
   6665 H        1098.2292    1.2714   98.7914 H      1110        0    0.0000
   6666 H        1096.9358    0.8834   99.9204 H      1110        0    0.0000
   6667 C        1097.7024    2.9180  100.1260 C.3    1111        0    0.0000
   6668 C        1096.9670    3.6361   98.9889 C.3    1111        0    0.0000
   6669 H        1097.1431    3.0269  101.0634 H      1111        0    0.0000
   6670 H        1098.6842    3.3795  100.2895 H      1111        0    0.0000
   6671 H        1097.3774    3.3252   98.0202 H      1111        0    0.0000
   6672 H        1095.9075    3.3523   98.9880 H      1111        0    0.0000
   6673 C        1097.0723    5.1958   99.1051 C.3    1112        0    0.0000
   6674 C        1095.7767    5.8984   98.6836 C.3    1112        0    0.0000
   6675 H        1097.3220    5.4572  100.1410 H      1112        0    0.0000
   6676 H        1097.9071    5.5413   98.4829 H      1112        0    0.0000
   6677 H        1094.9296    5.2065   98.7668 H      1112        0    0.0000
   6678 H        1095.5668    6.7368   99.3593 H      1112        0    0.0000
   6679 C        1095.8452    6.4390   97.2137 C.3    1113        0    0.0000
   6680 C        1094.4708    6.8675   96.6878 C.3    1113        0    0.0000
   6681 H        1096.5415    7.2862   97.1806 H      1113        0    0.0000
   6682 H        1096.2679    5.6583   96.5692 H      1113        0    0.0000
   6683 H        1094.3030    6.4477   95.6882 H      1113        0    0.0000
   6684 H        1093.6796    6.4682   97.3342 H      1113        0    0.0000
   6685 C        1094.3231    8.4264   96.6125 C.3    1114        0    0.0000
   6686 C        1092.8563    8.8707   96.5955 C.3    1114        0    0.0000
   6687 H        1094.8413    8.8726   97.4704 H      1114        0    0.0000
   6688 H        1094.8359    8.7871   95.7123 H      1114        0    0.0000
   6689 H        1092.3911    8.5955   95.6409 H      1114        0    0.0000
   6690 H        1092.2959    8.3487   97.3810 H      1114        0    0.0000
   6691 C        1092.7012   10.4163   96.8061 C.3    1115        0    0.0000
   6692 C        1091.5215   10.9946   96.0169 C.3    1115        0    0.0000
   6693 H        1092.5712   10.6159   97.8770 H      1115        0    0.0000
   6694 H        1093.6334   10.9096   96.5046 H      1115        0    0.0000
   6695 H        1091.4441   10.5009   95.0402 H      1115        0    0.0000
   6696 H        1090.5811   10.7953   96.5458 H      1115        0    0.0000
   6697 C        1091.6571   12.5401   95.7925 C.3    1116        0    0.0000
   6698 C        1090.3448   13.1757   95.3199 C.3    1116        0    0.0000
   6699 H        1091.9845   13.0062   96.7301 H      1116        0    0.0000
   6700 H        1092.4497   12.7224   95.0565 H      1116        0    0.0000
   6701 H        1089.5050   12.4999   95.5235 H      1116        0    0.0000
   6702 H        1090.1501   14.0982   95.8809 H      1116        0    0.0000
   6703 C        1090.3644   13.5104   93.7886 C.3    1117        0    0.0000
   6704 C        1088.9591   13.7636   93.2315 C.3    1117        0    0.0000
   6705 H        1090.9973   14.3918   93.6272 H      1117        0    0.0000
   6706 H        1090.8380   12.6795   93.2510 H      1117        0    0.0000
   6707 H        1088.8278   13.2266   92.2838 H      1117        0    0.0000
   6708 H        1088.2036   13.3709   93.9233 H      1117        0    0.0000
   6709 C        1088.6809   15.2875   92.9912 C.3    1118        0    0.0000
   6710 C        1087.1877   15.5843   92.8132 C.3    1118        0    0.0000
   6711 H        1089.0791   15.8578   93.8396 H      1118        0    0.0000
   6712 H        1089.2374   15.6130   92.1038 H      1118        0    0.0000
   6713 H        1086.8198   15.1210   91.8894 H      1118        0    0.0000
   6714 H        1086.6152   15.1413   93.6375 H      1118        0    0.0000
   6715 C        1086.8899   17.1225   92.7605 C.3    1119        0    0.0000
   6716 C        1085.8888   17.4829   91.6572 C.3    1119        0    0.0000
   6717 H        1086.5046   17.4416   93.7368 H      1119        0    0.0000
   6718 H        1087.8331   17.6601   92.6030 H      1119        0    0.0000
   6719 H        1086.1176   16.9206   90.7434 H      1119        0    0.0000
   6720 H        1084.8749   17.1931   91.9599 H      1119        0    0.0000
   6721 C        1085.8982   19.0146   91.3237 C.3    1120        0    0.0000
   6722 C        1084.5542   19.4959   90.7659 C.3    1120        0    0.0000
   6723 H        1086.1493   19.5732   92.2339 H      1120        0    0.0000
   6724 H        1086.6986   19.2141   90.6007 H      1120        0    0.0000
   6725 H        1084.5281   19.3594   89.6777 H      1120        0    0.0000
   6726 H        1083.7373   18.8913   91.1790 H      1120        0    0.0000
   6727 C        1084.2812   21.0046   91.0927 C.3    1121        0    0.0000
   6728 C        1083.7039   21.7635   89.8928 C.3    1121        0    0.0000
   6729 H        1083.5902   21.0629   91.9426 H      1121        0    0.0000
   6730 H        1085.2196   21.4715   91.4170 H      1121        0    0.0000
   6731 H        1084.0980   22.7872   89.8702 H      1121        0    0.0000
   6732 H        1084.0186   21.2842   88.9577 H      1121        0    0.0000
   6733 C        1082.1378   21.8258   89.9267 C.3    1122        0    0.0000
   6734 C        1081.5469   22.3082   88.5974 C.3    1122        0    0.0000
   6735 H        1081.7495   20.8294   90.1713 H      1122        0    0.0000
   6736 H        1081.8279   22.4932   90.7404 H      1122        0    0.0000
   6737 H        1082.2064   22.0251   87.7678 H      1122        0    0.0000
   6738 H        1080.5826   21.8182   88.4145 H      1122        0    0.0000
   6739 C        1081.3376   23.8616   88.5691 C.3    1123        0    0.0000
   6740 C        1081.3820   24.4277   87.1455 C.3    1123        0    0.0000
   6741 H        1080.3743   24.0972   89.0378 H      1123        0    0.0000
   6742 H        1082.1122   24.3340   89.1861 H      1123        0    0.0000
   6743 H        1082.1075   23.8694   86.5411 H      1123        0    0.0000
   6744 H        1080.4059   24.3030   86.6605 H      1123        0    0.0000
   6745 C        1081.7676   25.9470   87.1220 C.3    1124        0    0.0000
   6746 C        1080.8044   26.7776   86.2668 C.3    1124        0    0.0000
   6747 H        1081.7778   26.3252   88.1518 H      1124        0    0.0000
   6748 H        1082.7910   26.0462   86.7398 H      1124        0    0.0000
   6749 H        1079.8082   26.3179   86.2682 H      1124        0    0.0000
   6750 H        1080.6893   27.7805   86.6963 H      1124        0    0.0000
   6751 C        1081.2948   26.9162   84.7843 C.3    1125        0    0.0000
   6752 C        1080.1364   27.1541   83.8092 C.3    1125        0    0.0000
   6753 H        1082.0123   27.7439   84.7251 H      1125        0    0.0000
   6754 H        1081.8402   26.0059   84.5057 H      1125        0    0.0000
   6755 H        1080.4607   26.9458   82.7821 H      1125        0    0.0000
   6756 H        1079.3136   26.4618   84.0265 H      1125        0    0.0000
   6757 C        1079.5929   28.6228   83.8794 C.3    1126        0    0.0000
   6758 C        1078.1698   28.7428   83.3229 C.3    1126        0    0.0000
   6759 H        1079.6182   28.9598   84.9232 H      1126        0    0.0000
   6760 H        1080.2720   29.2782   83.3202 H      1126        0    0.0000
   6761 H        1078.1947   28.7548   82.2263 H      1126        0    0.0000
   6762 H        1077.5767   27.8675   83.6152 H      1126        0    0.0000
   6763 C        1077.4423   30.0371   83.8261 C.3    1127        0    0.0000
   6764 C        1076.9327   30.9040   82.6694 C.3    1127        0    0.0000
   6765 H        1076.6062   29.7440   84.4730 H      1127        0    0.0000
   6766 H        1078.1367   30.6131   84.4501 H      1127        0    0.0000
   6767 H        1077.0585   31.9667   82.9120 H      1127        0    0.0000
   6768 H        1077.5272   30.7145   81.7670 H      1127        0    0.0000
   6769 C        1075.4229   30.6350   82.3455 C.3    1128        0    0.0000
   6770 C        1075.0231   31.1604   80.9623 C.3    1128        0    0.0000
   6771 H        1075.2349   29.5558   82.4067 H      1128        0    0.0000
   6772 H        1074.8054   31.1067   83.1199 H      1128        0    0.0000
   6773 H        1075.6992   30.7586   80.1974 H      1128        0    0.0000
   6774 H        1074.0146   30.8135   80.7051 H      1128        0    0.0000
   6775 C        1075.0524   32.7261   80.8903 C.3    1129        0    0.0000
   6776 C        1075.4373   33.2365   79.4972 C.3    1129        0    0.0000
   6777 H        1074.0649   33.1117   81.1725 H      1129        0    0.0000
   6778 H        1075.7625   33.1014   81.6377 H      1129        0    0.0000
   6779 H        1076.1499   32.5470   79.0278 H      1129        0    0.0000
   6780 H        1074.5525   33.2645   78.8491 H      1129        0    0.0000
   6781 C        1076.0748   34.6677   79.5440 C.3    1130        0    0.0000
   6782 C        1075.3588   35.6532   78.6141 C.3    1130        0    0.0000
   6783 H        1076.0437   35.0351   80.5772 H      1130        0    0.0000
   6784 H        1077.1340   34.5922   79.2684 H      1130        0    0.0000
   6785 H        1074.3622   35.8871   79.0092 H      1130        0    0.0000
   6786 H        1075.9111   36.6000   78.5721 H      1130        0    0.0000
   6787 C        1075.2062   35.0925   77.1581 C.3    1131        0    0.0000
   6788 C        1074.1661   35.8689   76.3427 C.3    1131        0    0.0000
   6789 H        1076.1824   35.1335   76.6593 H      1131        0    0.0000
   6790 H        1074.9255   34.0335   77.2147 H      1131        0    0.0000
   6791 H        1073.7301   35.2194   75.5735 H      1131        0    0.0000
   6792 H        1073.3408   36.1870   76.9914 H      1131        0    0.0000
   6793 C        1074.7793   37.1334   75.6480 C.3    1132        0    0.0000
   6794 C        1073.7096   38.0076   74.9842 C.3    1132        0    0.0000
   6795 H        1075.3300   37.7162   76.3969 H      1132        0    0.0000
   6796 H        1075.5135   36.8058   74.9018 H      1132        0    0.0000
   6797 H        1073.0092   37.3807   74.4189 H      1132        0    0.0000
   6798 H        1073.1201   38.5270   75.7499 H      1132        0    0.0000
   6799 C        1074.3298   39.0725   74.0154 C.3    1133        0    0.0000
   6800 C        1073.2687   40.0056   73.4218 C.3    1133        0    0.0000
   6801 H        1075.0791   39.6562   74.5644 H      1133        0    0.0000
   6802 H        1074.8639   38.5507   73.2116 H      1133        0    0.0000
   6803 H        1072.4858   40.2055   74.1640 H      1133        0    0.0000
   6804 H        1073.7181   40.9740   73.1693 H      1133        0    0.0000
   6805 C        1072.6035   39.4065   72.1348 C.3    1134        0    0.0000
   6806 C        1071.3357   40.1663   71.7289 C.3    1134        0    0.0000
   6807 H        1073.3336   39.4286   71.3164 H      1134        0    0.0000
   6808 H        1072.3671   38.3509   72.3178 H      1134        0    0.0000
   6809 H        1070.5840   39.4658   71.3449 H      1134        0    0.0000
   6810 H        1070.8928   40.6545   72.6058 H      1134        0    0.0000
   6811 C        1071.6191   41.2530   70.6352 C.3    1135        0    0.0000
   6812 C        1070.4332   42.2040   70.4399 C.3    1135        0    0.0000
   6813 H        1072.5127   41.8204   70.9238 H      1135        0    0.0000
   6814 H        1071.8573   40.7496   69.6900 H      1135        0    0.0000
   6815 H        1069.4893   41.6549   70.5453 H      1135        0    0.0000
   6816 H        1070.4375   42.9756   71.2198 H      1135        0    0.0000
   6817 C        1070.4570   42.9034   69.0372 C.3    1136        0    0.0000
   6818 C        1069.6384   44.1990   69.0201 C.3    1136        0    0.0000
   6819 H        1071.4989   43.1130   68.7642 H      1136        0    0.0000
   6820 H        1070.0693   42.2036   68.2865 H      1136        0    0.0000
   6821 H        1068.5764   43.9709   68.8667 H      1136        0    0.0000
   6822 H        1069.7151   44.7053   69.9905 H      1136        0    0.0000
   6823 C        1070.1108   45.1855   67.8971 C.3    1137        0    0.0000
   6824 C        1068.9348   45.8822   67.2036 C.3    1137        0    0.0000
   6825 H        1070.7815   45.9316   68.3409 H      1137        0    0.0000
   6826 H        1070.7035   44.6268   67.1620 H      1137        0    0.0000
   6827 H        1069.2859   46.4123   66.3098 H      1137        0    0.0000
   6828 H        1068.2048   45.1377   66.8622 H      1137        0    0.0000
   6829 C        1068.2107   46.9047   68.1458 C.3    1138        0    0.0000
   6830 C        1067.1663   47.7426   67.4003 C.3    1138        0    0.0000
   6831 H        1067.7349   46.3536   68.9665 H      1138        0    0.0000
   6832 H        1068.9635   47.5601   68.6014 H      1138        0    0.0000
   6833 H        1066.3470   47.1009   67.0534 H      1138        0    0.0000
   6834 H        1066.7222   48.4811   68.0793 H      1138        0    0.0000
   6835 C        1067.7771   48.4933   66.1670 C.3    1139        0    0.0000
   6836 C        1066.7689   48.6468   65.0228 C.3    1139        0    0.0000
   6837 H        1068.1298   49.4798   66.4926 H      1139        0    0.0000
   6838 H        1068.6597   47.9421   65.8192 H      1139        0    0.0000
   6839 H        1066.3312   47.6722   64.7737 H      1139        0    0.0000
   6840 H        1065.9399   49.2936   65.3362 H      1139        0    0.0000
   6841 C        1067.4221   49.2521   63.7327 C.3    1140        0    0.0000
   6842 C        1066.4937   50.2427   63.0215 C.3    1140        0    0.0000
   6843 H        1068.3600   49.7488   64.0109 H      1140        0    0.0000
   6844 H        1067.6890   48.4327   63.0537 H      1140        0    0.0000
   6845 H        1065.7283   50.6070   63.7179 H      1140        0    0.0000
   6846 H        1067.0624   51.1207   62.6911 H      1140        0    0.0000
   6847 C        1065.7832   49.6039   61.7786 C.3    1141        0    0.0000
   6848 C        1064.9171   50.6161   61.0208 C.3    1141        0    0.0000
   6849 H        1066.5469   49.1873   61.1102 H      1141        0    0.0000
   6850 H        1065.1677   48.7613   62.1175 H      1141        0    0.0000
   6851 H        1064.1765   50.0909   60.4050 H      1141        0    0.0000
   6852 H        1064.3546   51.2354   61.7302 H      1141        0    0.0000
   6853 C        1065.7692   51.5532   60.0971 C.3    1142        0    0.0000
   6854 C        1064.9573   52.7398   59.5662 C.3    1142        0    0.0000
   6855 H        1066.6367   51.9142   60.6633 H      1142        0    0.0000
   6856 H        1066.1627   50.9624   59.2606 H      1142        0    0.0000
   6857 H        1063.9146   52.4400   59.4046 H      1142        0    0.0000
   6858 H        1064.9415   53.5471   60.3089 H      1142        0    0.0000
   6859 C        1065.5356   53.3014   58.2217 C.3    1143        0    0.0000
   6860 C        1064.7169   54.4808   57.6849 C.3    1143        0    0.0000
   6861 H        1066.5758   53.6092   58.3854 H      1143        0    0.0000
   6862 H        1065.5593   52.4921   57.4815 H      1143        0    0.0000
   6863 H        1063.7588   54.1237   57.2875 H      1143        0    0.0000
   6864 H        1064.4805   55.1764   58.4996 H      1143        0    0.0000
   6865 C        1065.4722   55.2632   56.5557 C.3    1144        0    0.0000
   6866 C        1064.5090   55.9302   55.5673 C.3    1144        0    0.0000
   6867 H        1066.1176   56.0189   57.0202 H      1144        0    0.0000
   6868 H        1066.1334   54.5672   56.0249 H      1144        0    0.0000
   6869 H        1064.9467   55.9358   54.5615 H      1144        0    0.0000
   6870 H        1063.5778   55.3540   55.5026 H      1144        0    0.0000
   6871 C        1064.1641   57.4035   55.9766 C.3    1145        0    0.0000
   6872 C        1062.8291   57.8727   55.3874 C.3    1145        0    0.0000
   6873 H        1064.1359   57.4690   57.0713 H      1145        0    0.0000
   6874 H        1064.9751   58.0625   55.6425 H      1145        0    0.0000
   6875 H        1062.2421   57.0090   55.0514 H      1145        0    0.0000
   6876 H        1062.2343   58.3773   56.1588 H      1145        0    0.0000
   6877 C        1063.0245   58.8519   54.1789 C.3    1146        0    0.0000
   6878 C        1061.8833   58.7530   53.1607 C.3    1146        0    0.0000
   6879 H        1063.0984   59.8769   54.5627 H      1146        0    0.0000
   6880 H        1063.9824   58.6275   53.6933 H      1146        0    0.0000
   6881 H        1061.5769   57.7065   53.0396 H      1146        0    0.0000
   6882 H        1061.0044   59.2981   53.5266 H      1146        0    0.0000
   6883 C        1062.2863   59.3268   51.7587 C.3    1147        0    0.0000
   6884 C        1061.3018   60.3915   51.2622 C.3    1147        0    0.0000
   6885 H        1063.2958   59.7508   51.8270 H      1147        0    0.0000
   6886 H        1062.3398   58.4996   51.0401 H      1147        0    0.0000
   6887 H        1060.8239   60.8887   52.1152 H      1147        0    0.0000
   6888 H        1061.8383   61.1691   50.7043 H      1147        0    0.0000
   6889 C        1060.1873   59.7865   50.3406 C.3    1148        0    0.0000
   6890 C        1059.3812   60.8702   49.6159 C.3    1148        0    0.0000
   6891 H        1060.6573   59.1160   49.6106 H      1148        0    0.0000
   6892 H        1059.5198   59.1674   50.9528 H      1148        0    0.0000
   6893 H        1058.3549   60.5232   49.4433 H      1148        0    0.0000
   6894 H        1059.3093   61.7677   50.2425 H      1148        0    0.0000
   6895 C        1060.0194   61.2646   48.2395 C.3    1149        0    0.0000
   6896 C        1059.5842   62.6591   47.7758 C.3    1149        0    0.0000
   6897 H        1061.1118   61.2225   48.3312 H      1149        0    0.0000
   6898 H        1059.7371   60.5141   47.4908 H      1149        0    0.0000
   6899 H        1058.6599   62.9541   48.2875 H      1149        0    0.0000
   6900 H        1060.3456   63.4006   48.0480 H      1149        0    0.0000
   6901 C        1059.3472   62.7232   46.2275 C.3    1150        0    0.0000
   6902 C        1059.0465   64.1464   45.7444 C.3    1150        0    0.0000
   6903 H        1060.2363   62.3329   45.7171 H      1150        0    0.0000
   6904 H        1058.5165   62.0551   45.9689 H      1150        0    0.0000
   6905 H        1058.0715   64.4748   46.1251 H      1150        0    0.0000
   6906 H        1059.7922   64.8448   46.1442 H      1150        0    0.0000
   6907 C        1059.0406   64.2541   44.1805 C.3    1151        0    0.0000
   6908 C        1058.3663   65.5398   43.6893 C.3    1151        0    0.0000
   6909 H        1060.0756   64.2103   43.8192 H      1151        0    0.0000
   6910 H        1058.5255   63.3778   43.7677 H      1151        0    0.0000
   6911 H        1058.7034   65.7764   42.6725 H      1151        0    0.0000
   6912 H        1057.2798   65.3979   43.6361 H      1151        0    0.0000
   6913 C        1058.6710   66.7636   44.6204 C.3    1152        0    0.0000
   6914 C        1057.7440   67.9515   44.3404 C.3    1152        0    0.0000
   6915 H        1058.5706   66.4463   45.6658 H      1152        0    0.0000
   6916 H        1059.7175   67.0620   44.4810 H      1152        0    0.0000
   6917 H        1056.8281   67.6054   43.8453 H      1152        0    0.0000
   6918 H        1057.4351   68.4182   45.2839 H      1152        0    0.0000
   6919 C        1058.4259   69.0377   43.4389 C.3    1153        0    0.0000
   6920 C        1057.6508   69.2845   42.1399 C.3    1153        0    0.0000
   6921 H        1058.5088   69.9704   44.0103 H      1153        0    0.0000
   6922 H        1059.4496   68.7160   43.2106 H      1153        0    0.0000
   6923 H        1058.2649   69.8642   41.4397 H      1153        0    0.0000
   6924 H        1057.4281   68.3298   41.6475 H      1153        0    0.0000
   6925 C        1056.3059   70.0512   42.3869 C.3    1154        0    0.0000
   6926 C        1055.4895   70.2213   41.1010 C.3    1154        0    0.0000
   6927 H        1055.7192   69.5039   43.1352 H      1154        0    0.0000
   6928 H        1056.5330   71.0326   42.8209 H      1154        0    0.0000
   6929 H        1055.7562   69.4387   40.3799 H      1154        0    0.0000
   6930 H        1054.4204   70.1007   41.3154 H      1154        0    0.0000
   6931 C        1055.7163   71.6216   40.4341 C.3    1155        0    0.0000
   6932 C        1055.7179   71.5426   38.9034 C.3    1155        0    0.0000
   6933 H        1054.9302   72.3069   40.7744 H      1155        0    0.0000
   6934 H        1056.6688   72.0330   40.7904 H      1155        0    0.0000
   6935 H        1056.5450   70.9089   38.5604 H      1155        0    0.0000
   6936 H        1054.7924   71.0713   38.5501 H      1155        0    0.0000
   6937 C        1055.8527   72.9546   38.2357 C.3    1156        0    0.0000
   6938 C        1055.1243   73.0324   36.8894 C.3    1156        0    0.0000
   6939 H        1055.4536   73.7104   38.9234 H      1156        0    0.0000
   6940 H        1056.9174   73.1819   38.1011 H      1156        0    0.0000
   6941 H        1054.3473   72.2596   36.8370 H      1156        0    0.0000
   6942 H        1054.6145   73.9989   36.7927 H      1156        0    0.0000
   6943 C        1056.0992   72.8517   35.6751 C.3    1157        0    0.0000
   6944 C        1055.5143   73.4088   34.3726 C.3    1157        0    0.0000
   6945 H        1057.0477   73.3522   35.9057 H      1157        0    0.0000
   6946 H        1056.3260   71.7846   35.5595 H      1157        0    0.0000
   6947 H        1055.9203   72.8611   33.5132 H      1157        0    0.0000
   6948 H        1054.4274   73.2614   34.3551 H      1157        0    0.0000
   6949 C        1055.8201   74.9353   34.1892 C.3    1158        0    0.0000
   6950 C        1054.8135   75.6217   33.2593 C.3    1158        0    0.0000
   6951 H        1055.8124   75.4184   35.1742 H      1158        0    0.0000
   6952 H        1056.8363   75.0471   33.7916 H      1158        0    0.0000
   6953 H        1054.8859   75.1998   32.2493 H      1158        0    0.0000
   6954 H        1053.7903   75.4326   33.6071 H      1158        0    0.0000
   6955 C        1055.0409   77.1707   33.1773 C.3    1159        0    0.0000
   6956 C        1054.1460   77.8342   32.1245 C.3    1159        0    0.0000
   6957 H        1054.8486   77.6091   34.1645 H      1159        0    0.0000
   6958 H        1056.0966   77.3615   32.9479 H      1159        0    0.0000
   6959 H        1053.1449   77.3862   32.1457 H      1159        0    0.0000
   6960 H        1054.0197   78.8992   32.3554 H      1159        0    0.0000
   6961 C        1054.7305   77.6969   30.6764 C.3    1160        0    0.0000
   6962 C        1053.7162   78.0990   29.6000 C.3    1160        0    0.0000
   6963 H        1055.6298   78.3203   30.5975 H      1160        0    0.0000
   6964 H        1055.0518   76.6594   30.5216 H      1160        0    0.0000
   6965 H        1052.9008   77.3663   29.5590 H      1160        0    0.0000
   6966 H        1053.2603   79.0640   29.8545 H      1160        0    0.0000
   6967 C        1054.3695   78.2081   28.1792 C.3    1161        0    0.0000
   6968 C        1053.3838   78.7232   27.1246 C.3    1161        0    0.0000
   6969 H        1055.2382   78.8753   28.2397 H      1161        0    0.0000
   6970 H        1054.7500   77.2211   27.8882 H      1161        0    0.0000
   6971 H        1053.4398   78.1020   26.2221 H      1161        0    0.0000
   6972 H        1052.3558   78.6425   27.4993 H      1161        0    0.0000
   6973 C        1053.6620   80.2146   26.7297 C.3    1162        0    0.0000
   6974 C        1052.3782   80.9680   26.3646 C.3    1162        0    0.0000
   6975 H        1054.1660   80.7138   27.5664 H      1162        0    0.0000
   6976 H        1054.3615   80.2320   25.8848 H      1162        0    0.0000
   6977 H        1052.0181   80.6431   25.3807 H      1162        0    0.0000
   6978 H        1051.5850   80.7303   27.0844 H      1162        0    0.0000
   6979 C        1052.5879   82.5213   26.3385 C.3    1163        0    0.0000
   6980 C        1051.8820   83.1828   25.1497 C.3    1163        0    0.0000
   6981 H        1052.2156   82.9442   27.2798 H      1163        0    0.0000
   6982 H        1053.6639   82.7323   26.3021 H      1163        0    0.0000
   6983 H        1052.4296   84.0816   24.8396 H      1163        0    0.0000
   6984 H        1051.8784   82.5033   24.2886 H      1163        0    0.0000
   6985 C        1050.4034   83.5824   25.4841 C.3    1164        0    0.0000
   6986 C        1049.4812   83.4688   24.2651 C.3    1164        0    0.0000
   6987 H        1050.0376   82.9388   26.2937 H      1164        0    0.0000
   6988 H        1050.3932   84.6096   25.8691 H      1164        0    0.0000
   6989 H        1049.6759   82.5299   23.7322 H      1164        0    0.0000
   6990 H        1048.4332   83.4363   24.5880 H      1164        0    0.0000
   6991 C        1049.6654   84.6638   23.2674 C.3    1165        0    0.0000
   6992 C        1049.7358   84.1973   21.8091 C.3    1165        0    0.0000
   6993 H        1048.8322   85.3653   23.3980 H      1165        0    0.0000
   6994 H        1050.5801   85.2082   23.5328 H      1165        0    0.0000
   6995 H        1050.2773   83.2454   21.7444 H      1165        0    0.0000
   6996 H        1048.7253   84.0116   21.4243 H      1165        0    0.0000
   6997 C        1050.4443   85.2456   20.8836 C.3    1166        0    0.0000
   6998 C        1049.4896   85.8406   19.8427 C.3    1166        0    0.0000
   6999 H        1050.8634   86.0435   21.5092 H      1166        0    0.0000
   7000 H        1051.2913   84.7601   20.3831 H      1166        0    0.0000
   7001 H        1049.3977   85.1621   18.9855 H      1166        0    0.0000
   7002 H        1048.4849   85.9456   20.2704 H      1166        0    0.0000
   7003 C        1049.9690   87.2418   19.3288 C.3    1167        0    0.0000
   7004 C        1049.5585   87.4990   17.8748 C.3    1167        0    0.0000
   7005 H        1049.5516   88.0193   19.9806 H      1167        0    0.0000
   7006 H        1051.0602   87.3003   19.4276 H      1167        0    0.0000
   7007 H        1050.3877   87.9628   17.3261 H      1167        0    0.0000
   7008 H        1049.3405   86.5488   17.3718 H      1167        0    0.0000
   7009 C        1048.2999   88.4276   17.7680 C.3    1168        0    0.0000
   7010 C        1048.0836   88.9514   16.3440 C.3    1168        0    0.0000
   7011 H        1047.4176   87.8669   18.1005 H      1168        0    0.0000
   7012 H        1048.4202   89.2674   18.4637 H      1168        0    0.0000
   7013 H        1048.4830   88.2353   15.6152 H      1168        0    0.0000
   7014 H        1047.0104   89.0461   16.1370 H      1168        0    0.0000
   7015 C        1048.7677   90.3426   16.1124 C.3    1169        0    0.0000
   7016 C        1048.8405   90.7140   14.6272 C.3    1169        0    0.0000
   7017 H        1048.2083   91.1080   16.6646 H      1169        0    0.0000
   7018 H        1049.7760   90.3171   16.5436 H      1169        0    0.0000
   7019 H        1049.8590   91.0282   14.3675 H      1169        0    0.0000
   7020 H        1048.6138   89.8369   14.0085 H      1169        0    0.0000
   7021 C        1047.8455   91.8664   14.2535 C.3    1170        0    0.0000
   7022 C        1047.4304   91.8203   12.7789 C.3    1170        0    0.0000
   7023 H        1046.9595   91.7909   14.8963 H      1170        0    0.0000
   7024 H        1048.3186   92.8297   14.4813 H      1170        0    0.0000
   7025 H        1048.2316   91.3743   12.1766 H      1170        0    0.0000
   7026 H        1046.5492   91.1785   12.6560 H      1170        0    0.0000
   7027 C        1047.1024   93.2434   12.2092 C.3    1171        0    0.0000
   7028 C        1047.2244   93.3000   10.6824 C.3    1171        0    0.0000
   7029 H        1046.0865   93.5217   12.5160 H      1171        0    0.0000
   7030 H        1047.7811   93.9730   12.6681 H      1171        0    0.0000
   7031 H        1048.1809   92.8668   10.3651 H      1171        0    0.0000
   7032 H        1046.4353   92.6949   10.2193 H      1171        0    0.0000
   7033 C        1047.1261   94.7649   10.1326 C.3    1172        0    0.0000
   7034 C        1046.4309   94.8279    8.7683 C.3    1172        0    0.0000
   7035 H        1046.5826   95.3801   10.8605 H      1172        0    0.0000
   7036 H        1048.1375   95.1836   10.0591 H      1172        0    0.0000
   7037 H        1046.8677   94.0854    8.0889 H      1172        0    0.0000
   7038 H        1045.3696   94.5714    8.8747 H      1172        0    0.0000
   7039 C        1046.5444   96.2452    8.1084 C.3    1173        0    0.0000
   7040 C        1046.0623   96.2490    6.6536 C.3    1173        0    0.0000
   7041 H        1045.9587   96.9590    8.7007 H      1173        0    0.0000
   7042 H        1047.5892   96.5762    8.1593 H      1173        0    0.0000
   7043 H        1046.7500   95.6670    6.0278 H      1173        0    0.0000
   7044 H        1045.0819   95.7621    6.5811 H      1173        0    0.0000
   7045 C        1045.9507   97.6990    6.0684 C.3    1174        0    0.0000
   7046 C        1045.2820   97.7191    4.6895 C.3    1174        0    0.0000
   7047 H        1045.3827   98.3212    6.7711 H      1174        0    0.0000
   7048 H        1046.9563   98.1331    6.0052 H      1174        0    0.0000
   7049 H        1045.8462   97.0914    3.9887 H      1174        0    0.0000
   7050 H        1044.2737   97.2914    4.7541 H      1174        0    0.0000
   7051 C        1045.1792   99.1681    4.1000 C.3    1175        0    0.0000
   7052 C        1044.7473   99.1676    2.6295 C.3    1175        0    0.0000
   7053 H        1044.4657   99.7448    4.7015 H      1175        0    0.0000
   7054 H        1046.1528   99.6627    4.2060 H      1175        0    0.0000
   7055 H        1045.3320   98.4301    2.0658 H      1175        0    0.0000
   7056 H        1043.6959   98.8660    2.5464 H      1175        0    0.0000
   7057 C        1044.9243  100.5729    1.9578 C.3    1176        0    0.0000
   7058 C        1044.0789  100.7204    0.6880 C.3    1176        0    0.0000
   7059 H        1044.6512  101.3488    2.6838 H      1176        0    0.0000
   7060 H        1045.9856  100.7213    1.7224 H      1176        0    0.0000
   7061 H        1044.2010   99.8363    0.0500 H      1176        0    0.0000
   7062 H        1043.0148  100.7760    0.9489 H      1176        0    0.0000
   7063 C        1044.4640  101.9963   -0.1374 C.3    1177        0    0.0000
   7064 C        1043.5701  102.1836   -1.3682 C.3    1177        0    0.0000
   7065 H        1044.3934  102.8747    0.5160 H      1177        0    0.0000
   7066 H        1045.5143  101.9154   -0.4441 H      1177        0    0.0000
   7067 H        1043.7955  101.4146   -2.1174 H      1177        0    0.0000
   7068 H        1042.5166  102.0541   -1.0911 H      1177        0    0.0000
   7069 C        1043.7500  103.5960   -2.0239 C.3    1178        0    0.0000
   7070 C        1042.9294  103.7487   -3.3093 C.3    1178        0    0.0000
   7071 H        1043.4565  104.3635   -1.2968 H      1178        0    0.0000
   7072 H        1044.8147  103.7542   -2.2363 H      1178        0    0.0000
   7073 H        1043.1970  102.9590   -4.0223 H      1178        0    0.0000
   7074 H        1041.8615  103.6268   -3.0903 H      1178        0    0.0000
   7075 C        1043.1493  105.1423   -3.9926 C.3    1179        0    0.0000
   7076 C        1042.3300  105.2941   -5.2791 C.3    1179        0    0.0000
   7077 H        1042.8805  105.9319   -3.2801 H      1179        0    0.0000
   7078 H        1044.2175  105.2647   -4.2104 H      1179        0    0.0000
   7079 H        1042.3794  104.3697   -5.8677 H      1179        0    0.0000
   7080 H        1041.2728  105.4559   -5.0348 H      1179        0    0.0000
   7081 C        1042.8319  106.4853   -6.1659 C.3    1180        0    0.0000
   7082 C        1041.8333  106.8482   -7.2704 C.3    1180        0    0.0000
   7083 H        1043.0123  107.3545   -5.5214 H      1180        0    0.0000
   7084 H        1043.7991  106.2144   -6.6074 H      1180        0    0.0000
   7085 H        1041.6179  105.9669   -7.8872 H      1180        0    0.0000
   7086 H        1040.8802  107.1632   -6.8273 H      1180        0    0.0000
   7087 C        1042.3633  107.9961   -8.1971 C.3    1181        0    0.0000
   7088 C        1041.3621  108.3631   -9.2980 C.3    1181        0    0.0000
   7089 H        1042.5829  108.8760   -7.5797 H      1181        0    0.0000
   7090 H        1043.3141  107.6795   -8.6436 H      1181        0    0.0000
   7091 H        1041.2644  107.5337  -10.0093 H      1181        0    0.0000
   7092 H        1040.3677  108.5242   -8.8635 H      1181        0    0.0000
   7093 C        1041.7863  109.6531  -10.0811 C.3    1182        0    0.0000
   7094 C        1040.8129  109.9901  -11.2161 C.3    1182        0    0.0000
   7095 H        1041.8463  110.4912   -9.3757 H      1182        0    0.0000
   7096 H        1042.7966  109.5066  -10.4829 H      1182        0    0.0000
   7097 H        1040.7079  109.1302  -11.8892 H      1182        0    0.0000
   7098 H        1039.8156  110.1945  -10.8078 H      1182        0    0.0000
   7099 C        1041.2811  111.2314  -12.0512 C.3    1183        0    0.0000
   7100 C        1040.3245  111.5492  -13.2056 C.3    1183        0    0.0000
   7101 H        1041.3643  112.0969  -11.3822 H      1183        0    0.0000
   7102 H        1042.2882  111.0363  -12.4402 H      1183        0    0.0000
   7103 H        1040.1521  110.6498  -13.8098 H      1183        0    0.0000
   7104 H        1039.3477  111.8556  -12.8111 H      1183        0    0.0000
   7105 C        1040.8724  112.6855  -14.1360 C.3    1184        0    0.0000
   7106 C        1039.8557  113.1029  -15.2041 C.3    1184        0    0.0000
   7107 H        1041.1438  113.5496  -13.5167 H      1184        0    0.0000
   7108 H        1041.7971  112.3371  -14.6127 H      1184        0    0.0000
   7109 H        1039.6477  112.2602  -15.8752 H      1184        0    0.0000
   7110 H        1038.9027  113.3717  -14.7316 H      1184        0    0.0000
   7111 C        1040.3563  114.3179  -16.0587 C.3    1185        0    0.0000
   7112 C        1039.3800  114.6783  -17.1838 C.3    1185        0    0.0000
   7113 H        1040.5017  115.1802  -15.3963 H      1185        0    0.0000
   7114 H        1041.3402  114.0736  -16.4783 H      1185        0    0.0000
   7115 H        1039.4034  113.9069  -17.9636 H      1185        0    0.0000
   7116 H        1038.3538  114.7044  -16.7972 H      1185        0    0.0000
   7117 C        1039.7100  116.0654  -17.8352 C.3    1186        0    0.0000
   7118 C        1038.8354  116.3548  -19.0602 C.3    1186        0    0.0000
   7119 H        1039.5739  116.8512  -17.0818 H      1186        0    0.0000
   7120 H        1040.7700  116.0802  -18.1178 H      1186        0    0.0000
   7121 H        1038.9503  115.5545  -19.8018 H      1186        0    0.0000
   7122 H        1037.7771  116.3679  -18.7721 H      1186        0    0.0000
   7123 C        1039.1924  117.7240  -19.7350 C.3    1187        0    0.0000
   7124 C        1038.3496  117.9918  -20.9868 C.3    1187        0    0.0000
   7125 H        1039.0449  118.5279  -19.0032 H      1187        0    0.0000
   7126 H        1040.2589  117.7240  -19.9924 H      1187        0    0.0000
   7127 H        1038.4105  117.1366  -21.6713 H      1187        0    0.0000
   7128 H        1037.2931  118.1011  -20.7127 H      1187        0    0.0000
   7129 C        1038.8102  119.2823  -21.7483 C.3    1188        0    0.0000
   7130 C        1037.9351  119.5786  -22.9712 C.3    1188        0    0.0000
   7131 H        1038.7853  120.1308  -21.0533 H      1188        0    0.0000
   7132 H        1039.8560  119.1574  -22.0554 H      1188        0    0.0000
   7133 H        1037.4354  120.5477  -22.8501 H      1188        0    0.0000
   7134 H        1038.5588  119.6557  -23.8703 H      1188        0    0.0000
   7135 C        1036.8467  118.4747  -23.2044 C.3    1189        0    0.0000
   7136 C        1035.8584  118.8581  -24.3114 C.3    1189        0    0.0000
   7137 H        1037.3477  117.5321  -23.4575 H      1189        0    0.0000
   7138 H        1036.3096  118.3033  -22.2634 H      1189        0    0.0000
   7139 H        1035.6644  117.9937  -24.9585 H      1189        0    0.0000
   7140 H        1034.8949  119.1455  -23.8724 H      1189        0    0.0000
   7141 C        1036.3848  120.0420  -25.1938 C.3    1190        0    0.0000
   7142 C        1035.3466  120.5070  -26.2210 C.3    1190        0    0.0000
   7143 H        1036.6639  120.8755  -24.5374 H      1190        0    0.0000
   7144 H        1037.3016  119.7221  -25.7042 H      1190        0    0.0000
   7145 H        1034.8009  119.6437  -26.6215 H      1190        0    0.0000
   7146 H        1034.6033  121.1534  -25.7383 H      1190        0    0.0000
   7147 C        1035.9988  121.2894  -27.4127 C.3    1191        0    0.0000
   7148 C        1035.4755  122.7258  -27.5204 C.3    1191        0    0.0000
   7149 H        1037.0878  121.2949  -27.2782 H      1191        0    0.0000
   7150 H        1035.7993  120.7454  -28.3443 H      1191        0    0.0000
   7151 H        1034.3949  122.7192  -27.7106 H      1191        0    0.0000
   7152 H        1035.6248  123.2528  -26.5698 H      1191        0    0.0000
   7153 C        1036.1846  123.5326  -28.6621 C.3    1192        0    0.0000
   7154 C        1035.1824  124.2151  -29.5998 C.3    1192        0    0.0000
   7155 H        1036.8451  124.2817  -28.2081 H      1192        0    0.0000
   7156 H        1036.8273  122.8495  -29.2313 H      1192        0    0.0000
   7157 H        1034.5250  123.4655  -30.0574 H      1192        0    0.0000
   7158 H        1034.5366  124.8947  -29.0299 H      1192        0    0.0000
   7159 C        1035.8916  125.0273  -30.7377 C.3    1193        0    0.0000
   7160 C        1034.8901  125.7351  -31.6570 C.3    1193        0    0.0000
   7161 H        1036.5663  125.7616  -30.2802 H      1193        0    0.0000
   7162 H        1036.5200  124.3432  -31.3216 H      1193        0    0.0000
   7163 H        1034.3232  124.9955  -32.2360 H      1193        0    0.0000
   7164 H        1034.1598  126.2936  -31.0584 H      1193        0    0.0000
   7165 C        1035.5916  126.7244  -32.6502 C.3    1194        0    0.0000
   7166 C        1034.6005  127.3677  -33.6263 C.3    1194        0    0.0000
   7167 H        1036.1068  127.5008  -32.0711 H      1194        0    0.0000
   7168 H        1036.3656  126.1793  -33.2046 H      1194        0    0.0000
   7169 H        1034.7058  128.4594  -33.6043 H      1194        0    0.0000
   7170 H        1034.8235  127.0502  -34.6524 H      1194        0    0.0000
   7171 C        1033.1140  126.9967  -33.2944 C.3    1195        0    0.0000
   7172 C        1032.1229  127.6400  -34.2706 C.3    1195        0    0.0000
   7173 H        1033.0085  125.9049  -33.3163 H      1195        0    0.0000
   7174 H        1032.8910  127.3142  -32.2681 H      1195        0    0.0000
   7175 H        1031.5311  126.8640  -34.7717 H      1195        0    0.0000
   7176 H        1031.4137  128.2733  -33.7237 H      1195        0    0.0000
   7177 C        1032.8409  128.5095  -35.3595 C.3    1196        0    0.0000
   7178 C        1031.8662  129.0343  -36.4196 C.3    1196        0    0.0000
   7179 H        1033.3467  129.3484  -34.8654 H      1196        0    0.0000
   7180 H        1033.6239  127.9055  -35.8347 H      1196        0    0.0000
   7181 H        1031.1250  128.2632  -36.6635 H      1196        0    0.0000
   7182 H        1031.3093  129.8935  -36.0259 H      1196        0    0.0000
   7183 C        1032.5975  129.4668  -37.7369 C.3    1197        0    0.0000
   7184 C        1032.4762  130.9716  -38.0013 C.3    1197        0    0.0000
   7185 H        1033.6543  129.1815  -37.6647 H      1197        0    0.0000
   7186 H        1032.1755  128.9020  -38.5775 H      1197        0    0.0000
   7187 H        1031.4194  131.2629  -38.0396 H      1197        0    0.0000
   7188 H        1032.9290  131.5361  -37.1767 H      1197        0    0.0000
   7189 C        1033.1665  131.3966  -39.3432 C.3    1198        0    0.0000
   7190 C        1032.3184  132.3918  -40.1428 C.3    1198        0    0.0000
   7191 H        1034.1454  131.8357  -39.1138 H      1198        0    0.0000
   7192 H        1033.3572  130.4979  -39.9429 H      1198        0    0.0000
   7193 H        1031.3535  131.9396  -40.4031 H      1198        0    0.0000
   7194 H        1032.0975  133.2749  -39.5304 H      1198        0    0.0000
   7195 C        1033.0306  132.8557  -41.4599 C.3    1199        0    0.0000
   7196 C        1032.2322  133.9314  -42.2044 C.3    1199        0    0.0000
   7197 H        1034.0286  133.2352  -41.2074 H      1199        0    0.0000
   7198 H        1033.1803  131.9827  -42.1073 H      1199        0    0.0000
   7199 H        1031.1565  133.7514  -42.0852 H      1199        0    0.0000
   7200 H        1032.4363  134.9184  -41.7713 H      1199        0    0.0000
   7201 C        1032.5715  133.9709  -43.7344 C.3    1200        0    0.0000
   7202 C        1031.7400  135.0156  -44.4869 C.3    1200        0    0.0000
   7203 H        1033.6410  134.1841  -43.8539 H      1200        0    0.0000
   7204 H        1032.3994  132.9748  -44.1607 H      1200        0    0.0000
   7205 H        1032.4012  135.7075  -45.0228 H      1200        0    0.0000
   7206 H        1031.1162  134.5252  -45.2445 H      1200        0    0.0000
   7207 C        1030.8148  135.8416  -43.5281 C.3    1201        0    0.0000
   7208 C        1029.8087  136.7072  -44.2946 C.3    1201        0    0.0000
   7209 H        1030.2849  135.1477  -42.8636 H      1201        0    0.0000
   7210 H        1031.4432  136.4729  -42.8877 H      1201        0    0.0000
   7211 H        1029.0565  136.0712  -44.7774 H      1201        0    0.0000
   7212 H        1029.2688  137.3615  -43.5991 H      1201        0    0.0000
   7213 C        1030.4991  137.5925  -45.3887 C.3    1202        0    0.0000
   7214 C        1029.5916  137.8314  -46.6004 C.3    1202        0    0.0000
   7215 H        1030.7858  138.5512  -44.9386 H      1202        0    0.0000
   7216 H        1031.4282  137.1028  -45.7053 H      1202        0    0.0000
   7217 H        1028.9652  136.9491  -46.7810 H      1202        0    0.0000
   7218 H        1028.9091  138.6668  -46.4004 H      1202        0    0.0000
   7219 C        1030.4078  138.1464  -47.9012 C.3    1203        0    0.0000
   7220 C        1029.8407  139.3473  -48.6663 C.3    1203        0    0.0000
   7221 H        1031.4529  138.3355  -47.6258 H      1203        0    0.0000
   7222 H        1030.4073  137.2570  -48.5432 H      1203        0    0.0000
   7223 H        1029.3434  140.0352  -47.9714 H      1203        0    0.0000
   7224 H        1030.6548  139.9108  -49.1389 H      1203        0    0.0000
   7225 C        1028.8157  138.9173  -49.7716 C.3    1204        0    0.0000
   7226 C        1028.1908  140.1217  -50.4845 C.3    1204        0    0.0000
   7227 H        1029.3280  138.2744  -50.4981 H      1204        0    0.0000
   7228 H        1028.0314  138.3061  -49.3080 H      1204        0    0.0000
   7229 H        1027.1151  139.9587  -50.6255 H      1204        0    0.0000
   7230 H        1028.2948  141.0210  -49.8649 H      1204        0    0.0000
   7231 C        1028.8484  140.3918  -51.8817 C.3    1205        0    0.0000
   7232 C        1028.3962  141.7246  -52.4887 C.3    1205        0    0.0000
   7233 H        1029.9395  140.3816  -51.7670 H      1205        0    0.0000
   7234 H        1028.5951  139.5655  -52.5575 H      1205        0    0.0000
   7235 H        1027.3954  141.9843  -52.1224 H      1205        0    0.0000
   7236 H        1029.0679  142.5307  -52.1686 H      1205        0    0.0000
   7237 C        1028.3661  141.6841  -54.0556 C.3    1206        0    0.0000
   7238 C        1028.0475  143.0535  -54.6659 C.3    1206        0    0.0000
   7239 H        1029.3378  141.3273  -54.4188 H      1206        0    0.0000
   7240 H        1027.6199  140.9467  -54.3760 H      1206        0    0.0000
   7241 H        1027.0062  143.3264  -54.4545 H      1206        0    0.0000
   7242 H        1028.6754  143.8261  -54.2051 H      1206        0    0.0000
   7243 C        1028.2716  143.0793  -56.2173 C.3    1207        0    0.0000
   7244 C        1027.6093  144.2924  -56.8798 C.3    1207        0    0.0000
   7245 H        1029.3501  143.0827  -56.4188 H      1207        0    0.0000
   7246 H        1027.8737  142.1518  -56.6474 H      1207        0    0.0000
   7247 H        1028.1995  144.6169  -57.7458 H      1207        0    0.0000
   7248 H        1026.6171  144.0187  -57.2594 H      1207        0    0.0000
   7249 C        1027.4568  145.4995  -55.8913 C.3    1208        0    0.0000
   7250 C        1026.6765  146.6636  -56.5119 C.3    1208        0    0.0000
   7251 H        1026.9519  145.1504  -54.9821 H      1208        0    0.0000
   7252 H        1028.4558  145.8360  -55.5873 H      1208        0    0.0000
   7253 H        1026.0974  146.3111  -57.3742 H      1208        0    0.0000
   7254 H        1025.9537  147.0602  -55.7879 H      1208        0    0.0000
   7255 C        1027.6171  147.8284  -56.9766 C.3    1209        0    0.0000
   7256 C        1027.0529  148.5837  -58.1850 C.3    1209        0    0.0000
   7257 H        1027.7657  148.5191  -56.1372 H      1209        0    0.0000
   7258 H        1028.6024  147.4116  -57.2199 H      1209        0    0.0000
   7259 H        1026.8939  147.8910  -59.0208 H      1209        0    0.0000
   7260 H        1026.0725  149.0097  -57.9381 H      1209        0    0.0000
   7261 C        1028.0007  149.7387  -58.6591 C.3    1210        0    0.0000
   7262 C        1027.3384  150.6406  -59.7065 C.3    1210        0    0.0000
   7263 H        1028.2988  150.3324  -57.7861 H      1210        0    0.0000
   7264 H        1028.9181  149.2979  -59.0685 H      1210        0    0.0000
   7265 H        1026.2505  150.6461  -59.5644 H      1210        0    0.0000
   7266 H        1027.6777  151.6761  -59.5798 H      1210        0    0.0000
   7267 C        1027.6543  150.1809  -61.1715 C.3    1211        0    0.0000
   7268 C        1026.3904  150.0735  -62.0319 C.3    1211        0    0.0000
   7269 H        1028.3567  150.8932  -61.6220 H      1211        0    0.0000
   7270 H        1028.1680  149.2122  -61.1352 H      1211        0    0.0000
   7271 H        1026.6084  149.5191  -62.9531 H      1211        0    0.0000
   7272 H        1025.6187  149.5058  -61.4975 H      1211        0    0.0000
   7273 C        1025.8104  151.4792  -62.4136 C.3    1212        0    0.0000
   7274 C        1024.7296  151.3871  -63.4964 C.3    1212        0    0.0000
   7275 H        1025.3999  151.9492  -61.5114 H      1212        0    0.0000
   7276 H        1026.6326  152.1196  -62.7563 H      1212        0    0.0000
   7277 H        1024.9805  150.5942  -64.2120 H      1212        0    0.0000
   7278 H        1023.7681  151.1116  -63.0456 H      1212        0    0.0000
   7279 C        1024.5540  152.7352  -64.2769 C.3    1213        0    0.0000
   7280 C        1023.0810  153.0645  -64.5433 C.3    1213        0    0.0000
   7281 H        1025.0210  153.5420  -63.6985 H      1213        0    0.0000
   7282 H        1025.1021  152.6690  -65.2249 H      1213        0    0.0000
   7283 H        1022.7517  152.5884  -65.4751 H      1213        0    0.0000
   7284 H        1022.4532  152.6557  -63.7419 H      1213        0    0.0000
   7285 C        1022.8265  154.6078  -64.6470 C.3    1214        0    0.0000
   7286 C        1022.8671  155.1071  -66.0955 C.3    1214        0    0.0000
   7287 H        1021.8524  154.8366  -64.1974 H      1214        0    0.0000
   7288 H        1023.5812  155.1317  -64.0473 H      1214        0    0.0000
   7289 H        1023.5229  154.4650  -66.6965 H      1214        0    0.0000
   7290 H        1021.8677  155.0436  -66.5434 H      1214        0    0.0000
   7291 C        1023.3746  156.5866  -66.2000 C.3    1215        0    0.0000
   7292 C        1023.0739  157.2086  -67.5681 C.3    1215        0    0.0000
   7293 H        1022.9036  157.1789  -65.4058 H      1215        0    0.0000
   7294 H        1024.4546  156.6044  -66.0079 H      1215        0    0.0000
   7295 H        1023.4441  158.2408  -67.6016 H      1215        0    0.0000
   7296 H        1023.6031  156.6584  -68.3560 H      1215        0    0.0000
   7297 C        1021.5410  157.2107  -67.8958 C.3    1216        0    0.0000
   7298 C        1021.2111  158.0630  -69.1262 C.3    1216        0    0.0000
   7299 H        1021.2120  156.1764  -68.0556 H      1216        0    0.0000
   7300 H        1020.9930  157.5840  -67.0217 H      1216        0    0.0000
   7301 H        1020.1478  157.9647  -69.3778 H      1216        0    0.0000
   7302 H        1021.3863  159.1236  -68.9071 H      1216        0    0.0000
   7303 C        1022.0657  157.6575  -70.3763 C.3    1217        0    0.0000
   7304 C        1021.8051  158.5709  -71.5792 C.3    1217        0    0.0000
   7305 H        1023.1279  157.6886  -70.1037 H      1217        0    0.0000
   7306 H        1021.8379  156.6168  -70.6379 H      1217        0    0.0000
   7307 H        1022.7102  159.1415  -71.8213 H      1217        0    0.0000
   7308 H        1021.5661  157.9684  -72.4642 H      1217        0    0.0000
   7309 C        1020.6295  159.5748  -71.3191 C.3    1218        0    0.0000
   7310 C        1020.3693  160.4887  -72.5216 C.3    1218        0    0.0000
   7311 H        1019.7242  159.0042  -71.0773 H      1218        0    0.0000
   7312 H        1020.8681  160.1770  -70.4336 H      1218        0    0.0000
   7313 H        1020.9636  160.1567  -73.3819 H      1218        0    0.0000
   7314 H        1019.3162  160.4240  -72.8223 H      1218        0    0.0000
   7315 C        1020.7162  161.9866  -72.2155 C.3    1219        0    0.0000
   7316 C        1020.5056  162.8923  -73.4340 C.3    1219        0    0.0000
   7317 H        1020.0942  162.3299  -71.3796 H      1219        0    0.0000
   7318 H        1021.7584  162.0464  -71.8781 H      1219        0    0.0000
   7319 H        1021.1638  163.7676  -73.3702 H      1219        0    0.0000
   7320 H        1020.7801  162.3578  -74.3519 H      1219        0    0.0000
   7321 C        1019.0222  163.3835  -73.5597 C.3    1220        0    0.0000
   7322 C        1018.6182  163.6447  -75.0150 C.3    1220        0    0.0000
   7323 H        1018.3610  162.6292  -73.1154 H      1220        0    0.0000
   7324 H        1018.9009  164.2978  -72.9657 H      1220        0    0.0000
   7325 H        1019.2930  163.1096  -75.6944 H      1220        0    0.0000
   7326 H        1017.6097  163.2549  -75.2010 H      1220        0    0.0000
   7327 C        1018.6446  165.1703  -75.3741 C.3    1221        0    0.0000
   7328 C        1018.6264  165.4111  -76.8877 C.3    1221        0    0.0000
   7329 H        1017.7816  165.6591  -74.9052 H      1221        0    0.0000
   7330 H        1019.5412  165.6223  -74.9321 H      1221        0    0.0000
   7331 H        1019.3801  164.7823  -77.3777 H      1221        0    0.0000
   7332 H        1017.6541  165.1192  -77.3034 H      1221        0    0.0000
   7333 C        1018.9033  166.9100  -77.2542 C.3    1222        0    0.0000
   7334 C        1017.9164  167.4446  -78.2980 C.3    1222        0    0.0000
   7335 H        1018.8474  167.5137  -76.3399 H      1222        0    0.0000
   7336 H        1019.9308  166.9987  -77.6279 H      1222        0    0.0000
   7337 H        1018.2256  167.1315  -79.3029 H      1222        0    0.0000
   7338 H        1016.9204  167.0175  -78.1275 H      1222        0    0.0000
   7339 C        1017.8078  169.0081  -78.2670 C.3    1223        0    0.0000
   7340 C        1017.5109  169.5973  -79.6504 C.3    1223        0    0.0000
   7341 H        1017.0197  169.2939  -77.5594 H      1223        0    0.0000
   7342 H        1018.7465  169.4201  -77.8762 H      1223        0    0.0000
   7343 H        1018.1129  170.5003  -79.8117 H      1223        0    0.0000
   7344 H        1017.7977  168.8837  -80.4326 H      1223        0    0.0000
   7345 C        1015.9965  169.9611  -79.8287 C.3    1224        0    0.0000
   7346 C        1015.6476  170.2991  -81.2824 C.3    1224        0    0.0000
   7347 H        1015.3870  169.1175  -79.4819 H      1224        0    0.0000
   7348 H        1015.7579  170.8109  -79.1772 H      1224        0    0.0000
   7349 H        1016.3493  169.8012  -81.9631 H      1224        0    0.0000
   7350 H        1014.6479  169.9193  -81.5273 H      1224        0    0.0000
   7351 C        1015.6838  171.8417  -81.5588 C.3    1225        0    0.0000
   7352 C        1015.7009  172.1630  -83.0574 C.3    1225        0    0.0000
   7353 H        1014.8107  172.3066  -81.0843 H      1225        0    0.0000
   7354 H        1016.5705  172.2673  -81.0727 H      1225        0    0.0000
   7355 H        1016.2331  171.3752  -83.6049 H      1225        0    0.0000
   7356 H        1014.6766  172.1824  -83.4495 H      1225        0    0.0000
   7357 C        1016.3847  173.5404  -83.3619 C.3    1226        0    0.0000
   7358 C        1015.5430  174.4119  -84.3005 C.3    1226        0    0.0000
   7359 H        1016.5579  174.0662  -82.4147 H      1226        0    0.0000
   7360 H        1017.3714  173.3552  -83.8043 H      1226        0    0.0000
   7361 H        1014.4752  174.2370  -84.1194 H      1226        0    0.0000
   7362 H        1015.7277  175.4735  -84.0947 H      1226        0    0.0000
   7363 C        1015.8524  174.1287  -85.8110 C.3    1227        0    0.0000
   7364 C        1014.6813  174.5068  -86.7246 C.3    1227        0    0.0000
   7365 H        1016.7504  174.6891  -86.0991 H      1227        0    0.0000
   7366 H        1016.0934  173.0649  -85.9291 H      1227        0    0.0000
   7367 H        1014.7923  174.0178  -87.7003 H      1227        0    0.0000
   7368 H        1013.7382  174.1452  -86.2964 H      1227        0    0.0000
   7369 C        1014.5754  176.0553  -86.9446 C.3    1228        0    0.0000
   7370 C        1013.1212  176.5329  -87.0224 C.3    1228        0    0.0000
   7371 H        1015.0955  176.5654  -86.1243 H      1228        0    0.0000
   7372 H        1015.1077  176.3186  -87.8671 H      1228        0    0.0000
   7373 H        1012.7181  176.3494  -88.0261 H      1228        0    0.0000
   7374 H        1012.4992  175.9600  -86.3235 H      1228        0    0.0000
   7375 C        1012.9784  178.0587  -86.6918 C.3    1229        0    0.0000
   7376 C        1012.5070  178.8734  -87.9014 C.3    1229        0    0.0000
   7377 H        1012.2717  178.1758  -85.8609 H      1229        0    0.0000
   7378 H        1013.9459  178.4359  -86.3381 H      1229        0    0.0000
   7379 H        1013.0376  179.8330  -87.9383 H      1229        0    0.0000
   7380 H        1012.7504  178.3429  -88.8302 H      1229        0    0.0000
   7381 C        1010.9644  179.1500  -87.8666 C.3    1230        0    0.0000
   7382 C        1010.4581  179.7824  -89.1677 C.3    1230        0    0.0000
   7383 H        1010.4399  178.2050  -87.6788 H      1230        0    0.0000
   7384 H        1010.7422  179.8079  -87.0173 H      1230        0    0.0000
   7385 H        1011.0337  179.4009  -90.0201 H      1230        0    0.0000
   7386 H        1009.4125  179.4995  -89.3416 H      1230        0    0.0000
   7387 C        1010.5617  181.3465  -89.1477 C.3    1231        0    0.0000
   7388 C        1010.6900  181.9382  -90.5557 C.3    1231        0    0.0000
   7389 H        1009.6737  181.7533  -88.6482 H      1231        0    0.0000
   7390 H        1011.4265  181.6358  -88.5378 H      1231        0    0.0000
   7391 H        1011.2922  181.2751  -91.1889 H      1231        0    0.0000
   7392 H        1009.7011  182.0098  -91.0252 H      1231        0    0.0000
   7393 C        1011.3481  183.3610  -90.5445 C.3    1232        0    0.0000
   7394 C        1010.5464  184.3783  -91.3640 C.3    1232        0    0.0000
   7395 H        1011.4368  183.7013  -89.5053 H      1232        0    0.0000
   7396 H        1012.3690  183.2815  -90.9382 H      1232        0    0.0000
   7397 H        1009.4742  184.2612  -91.1638 H      1232        0    0.0000
   7398 H        1010.8137  185.3986  -91.0623 H      1232        0    0.0000
   7399 C        1010.7923  184.2260  -92.9047 C.3    1233        0    0.0000
   7400 C        1009.6442  184.8084  -93.7365 C.3    1233        0    0.0000
   7401 H        1011.7347  184.7245  -93.1633 H      1233        0    0.0000
   7402 H        1010.9241  183.1623  -93.1383 H      1233        0    0.0000
   7403 H        1009.7606  184.5237  -94.7895 H      1233        0    0.0000
   7404 H        1008.6870  184.3905  -93.4010 H      1233        0    0.0000
   7405 C        1009.5745  186.3716  -93.6404 C.3    1234        0    0.0000
   7406 C        1008.2016  186.9179  -94.0478 C.3    1234        0    0.0000
   7407 H        1009.8094  186.6735  -92.6122 H      1234        0    0.0000
   7408 H        1010.3551  186.8004  -94.2809 H      1234        0    0.0000
   7409 H        1008.0679  186.8278  -95.1330 H      1234        0    0.0000
   7410 H        1007.4066  186.3226  -93.5819 H      1234        0    0.0000
   7411 C        1008.0144  188.4195  -93.6385 C.3    1235        0    0.0000
   7412 C        1007.1590  189.1942  -94.6471 C.3    1235        0    0.0000
   7413 H        1007.5526  188.4601  -92.6442 H      1235        0    0.0000
   7414 H        1009.0027  188.8867  -93.5463 H      1235        0    0.0000
   7415 H        1007.4874  188.9697  -95.6696 H      1235        0    0.0000
   7416 H        1006.1117  188.8754  -94.5754 H      1235        0    0.0000
   7417 C        1007.2320  190.7438  -94.4217 C.3    1236        0    0.0000
   7418 C        1006.1108  191.4906  -95.1527 C.3    1236        0    0.0000
   7419 H        1007.1797  190.9473  -93.3450 H      1236        0    0.0000
   7420 H        1008.2098  191.1052  -94.7635 H      1236        0    0.0000
   7421 H        1005.3193  190.7890  -95.4441 H      1236        0    0.0000
   7422 H        1005.6489  192.2257  -94.4821 H      1236        0    0.0000
   7423 C        1006.6273  192.2304  -96.4346 C.3    1237        0    0.0000
   7424 C        1005.4908  192.5764  -97.4032 C.3    1237        0    0.0000
   7425 H        1007.1518  193.1440  -96.1284 H      1237        0    0.0000
   7426 H        1007.3679  191.5948  -96.9355 H      1237        0    0.0000
   7427 H        1005.8229  192.4336  -98.4389 H      1237        0    0.0000
   7428 H        1004.6439  191.8967  -97.2474 H      1237        0    0.0000
   7429 C        1004.9924  194.0527  -97.2313 C.3    1238        0    0.0000
   7430 C        1003.6163  194.2789  -97.8671 C.3    1238        0    0.0000
   7431 H        1004.9561  194.2912  -96.1611 H      1238        0    0.0000
   7432 H        1005.7300  194.7295  -97.6801 H      1238        0    0.0000
   7433 H        1003.7126  194.3483  -98.9577 H      1238        0    0.0000
   7434 H        1002.9620  193.4224  -97.6624 H      1238        0    0.0000
   7435 C        1002.9238  195.5816  -97.3371 C.3    1239        0    0.0000
   7436 C        1002.3080  196.4133  -98.4677 C.3    1239        0    0.0000
   7437 H        1002.1498  195.3008  -96.6122 H      1239        0    0.0000
   7438 H        1003.6647  196.1789  -96.7913 H      1239        0    0.0000
   7439 H        1003.0163  196.4975  -99.3013 H      1239        0    0.0000
   7440 H        1001.4161  195.9106  -98.8617 H      1239        0    0.0000
   7441 C        1001.9092  197.8541  -97.9961 C.3    1240        0    0.0000
   7442 C        1000.8884  198.5101  -98.9325 C.3    1240        0    0.0000
   7443 H        1001.5021  197.7933  -96.9792 H      1240        0    0.0000
   7444 H        1002.8151  198.4701  -97.9365 H      1240        0    0.0000
   7445 H        1001.3907  198.8856  -99.8326 H      1240        0    0.0000
   7446 H        1000.1542  197.7673  -99.2681 H      1240        0    0.0000
   7447 C        1000.1287  199.6968  -98.2455 C.3    1241        0    0.0000
   7448 C         999.6987  200.7708  -99.2509 C.3    1241        0    0.0000
   7449 H         999.2508  199.2988  -97.7218 H      1241        0    0.0000
   7450 H        1000.7794  200.1372  -97.4799 H      1241        0    0.0000
   7451 H         999.8034  201.7674  -98.8043 H      1241        0    0.0000
   7452 H        1000.3556  200.7486 -100.1292 H      1241        0    0.0000
   7453 C         998.2160  200.5823  -99.7238 C.3    1242        0    0.0000
   7454 C         997.7875  201.6536 -100.7327 C.3    1242        0    0.0000
   7455 H         998.1104  199.5845 -100.1671 H      1242        0    0.0000
   7456 H         997.5588  200.6082  -98.8457 H      1242        0    0.0000
   7457 H         998.6542  201.9897 -101.3153 H      1242        0    0.0000
   7458 H         997.0714  201.2312 -101.4485 H      1242        0    0.0000
   7459 C         997.1332  202.8968 -100.0373 C.3    1243        0    0.0000
   7460 C         997.0416  204.1056 -100.9752 C.3    1243        0    0.0000
   7461 H         996.1326  202.6184  -99.6838 H      1243        0    0.0000
   7462 H         997.7213  203.1546  -99.1478 H      1243        0    0.0000
   7463 H         998.0289  204.3291 -101.3982 H      1243        0    0.0000
   7464 H         996.3812  203.8765 -101.8207 H      1243        0    0.0000
   7465 C         996.5033  205.3843 -100.2454 C.3    1244        0    0.0000
   7466 C         995.5643  206.2081 -101.1336 C.3    1244        0    0.0000
   7467 H         995.9818  205.0761  -99.3307 H      1244        0    0.0000
   7468 H         997.3568  205.9972  -99.9301 H      1244        0    0.0000
   7469 H         996.0976  206.5502 -102.0292 H      1244        0    0.0000
   7470 H         994.7320  205.5839 -101.4816 H      1244        0    0.0000
   7471 C         994.9814  207.4561 -100.3851 C.3    1245        0    0.0000
   7472 C         994.6109  208.5899 -101.3476 C.3    1245        0    0.0000
   7473 H         994.0988  207.1449  -99.8129 H      1245        0    0.0000
   7474 H         995.7214  207.8085  -99.6558 H      1245        0    0.0000
   7475 H         995.3099  208.6092 -102.1929 H      1245        0    0.0000
   7476 H         993.6129  208.4152 -101.7681 H      1245        0    0.0000
   7477 C         994.6259  209.9923 -100.6474 C.3    1246        0    0.0000
   7478 C         993.4471  210.8707 -101.0810 C.3    1246        0    0.0000
   7479 H         994.6053  209.8452  -99.5604 H      1246        0    0.0000
   7480 H         995.5738  210.4934 -100.8795 H      1246        0    0.0000
   7481 H         992.5967  210.2419 -101.3725 H      1246        0    0.0000
   7482 H         993.1086  211.4882 -100.2399 H      1246        0    0.0000
   7483 C         993.8158  211.8097 -102.2810 C.3    1247        0    0.0000
   7484 C         992.5875  212.5180 -102.8629 C.3    1247        0    0.0000
   7485 H         994.5496  212.5498 -101.9384 H      1247        0    0.0000
   7486 H         994.3094  211.2131 -103.0582 H      1247        0    0.0000
   7487 H         992.6471  212.5353 -103.9583 H      1247        0    0.0000
   7488 H         991.6765  211.9636 -102.6057 H      1247        0    0.0000
   7489 C         992.4476  213.9897 -102.3413 C.3    1248        0    0.0000
   7490 C         990.9961  214.3528 -102.0094 C.3    1248        0    0.0000
   7491 H         993.0786  214.1112 -101.4520 H      1248        0    0.0000
   7492 H         992.8418  214.6738 -103.1030 H      1248        0    0.0000
   7493 H         990.4459  214.5826 -102.9302 H      1248        0    0.0000
   7494 H         990.4907  213.4966 -101.5457 H      1248        0    0.0000
   7495 C         990.8976  215.5824 -101.0419 C.3    1249        0    0.0000
   7496 C         989.9592  216.6694 -101.5776 C.3    1249        0    0.0000
   7497 H         990.5489  215.2341 -100.0618 H      1249        0    0.0000
   7498 H         991.9030  215.9945 -100.8904 H      1249        0    0.0000
   7499 H         990.4126  217.6589 -101.4399 H      1249        0    0.0000
   7500 H         989.8095  216.5387 -102.6565 H      1249        0    0.0000
   7501 C         988.5617  216.6506 -100.8676 C.3    1250        0    0.0000
   7502 C         987.5768  217.6416 -101.4975 C.3    1250        0    0.0000
   7503 H         988.1542  215.6332 -100.9159 H      1250        0    0.0000
   7504 H         988.7019  216.8837  -99.8047 H      1250        0    0.0000
   7505 H         987.5488  217.5039 -102.5855 H      1250        0    0.0000
   7506 H         986.5616  217.4483 -101.1293 H      1250        0    0.0000
   7507 C         987.9521  219.1314 -101.1862 C.3    1251        0    0.0000
   7508 C         987.1554  220.1222 -102.0422 C.3    1251        0    0.0000
   7509 H         987.7737  219.3260 -100.1214 H      1251        0    0.0000
   7510 H         989.0275  219.2679 -101.3555 H      1251        0    0.0000
   7511 H         986.9575  219.6905 -103.0312 H      1251        0    0.0000
   7512 H         986.1786  220.3163 -101.5820 H      1251        0    0.0000
   7513 C         987.9067  221.4856 -102.2272 C.3    1252        0    0.0000
   7514 C         986.9991  222.6904 -101.9553 C.3    1252        0    0.0000
   7515 H         988.7720  221.5069 -101.5531 H      1252        0    0.0000
   7516 H         988.3021  221.5357 -103.2493 H      1252        0    0.0000
   7517 H         986.1730  222.3977 -101.2954 H      1252        0    0.0000
   7518 H         987.5602  223.4730 -101.4296 H      1252        0    0.0000
   7519 C         986.4031  223.2947 -103.2733 C.3    1253        0    0.0000
   7520 C         984.9277  223.6805 -103.1202 C.3    1253        0    0.0000
   7521 H         986.9943  224.1739 -103.5581 H      1253        0    0.0000
   7522 H         986.5184  222.5622 -104.0819 H      1253        0    0.0000
   7523 H         984.4111  223.5811 -104.0828 H      1253        0    0.0000
   7524 H         984.4300  222.9949 -102.4232 H      1253        0    0.0000
   7525 C         984.7484  225.1483 -102.5996 C.3    1254        0    0.0000
   7526 C         983.4457  225.3306 -101.8129 C.3    1254        0    0.0000
   7527 H         985.6081  225.4074 -101.9692 H      1254        0    0.0000
   7528 H         984.7689  225.8325 -103.4569 H      1254        0    0.0000
   7529 H         982.5987  225.4221 -102.5039 H      1254        0    0.0000
   7530 H         983.2532  224.4455 -101.1939 H      1254        0    0.0000
   7531 C         983.4824  226.5957 -100.8880 C.3    1255        0    0.0000
   7532 C         982.4105  227.6237 -101.2670 C.3    1255        0    0.0000
   7533 H         983.3464  226.2769  -99.8471 H      1255        0    0.0000
   7534 H         984.4787  227.0508 -100.9505 H      1255        0    0.0000
   7535 H         982.1514  227.5229 -102.3282 H      1255        0    0.0000
   7536 H         981.4911  227.4353 -100.6989 H      1255        0    0.0000
   7537 C         982.8777  229.0958 -100.9985 C.3    1256        0    0.0000
   7538 C         981.7013  230.0353 -100.7112 C.3    1256        0    0.0000
   7539 H         983.5753  229.0965 -100.1517 H      1256        0    0.0000
   7540 H         983.4401  229.4528 -101.8701 H      1256        0    0.0000
   7541 H         980.8503  229.4639 -100.3206 H      1256        0    0.0000
   7542 H         981.9786  230.7585  -99.9342 H      1256        0    0.0000
   7543 C         981.2405  230.8182 -101.9889 C.3    1257        0    0.0000
   7544 C         979.8666  231.4721 -101.8054 C.3    1257        0    0.0000
   7545 H         981.9919  231.5816 -102.2259 H      1257        0    0.0000
   7546 H         981.2167  230.1250 -102.8389 H      1257        0    0.0000
   7547 H         979.4473  231.7464 -102.7814 H      1257        0    0.0000
   7548 H         979.1680  230.7583 -101.3517 H      1257        0    0.0000
   7549 C         979.9341  232.7544 -100.9062 C.3    1258        0    0.0000
   7550 C         978.5596  233.1515 -100.3565 C.3    1258        0    0.0000
   7551 H         980.6310  232.5699 -100.0791 H      1258        0    0.0000
   7552 H         980.3558  233.5779 -101.4956 H      1258        0    0.0000
   7553 H         978.0163  233.7496 -101.0985 H      1258        0    0.0000
   7554 H         977.9553  232.2548 -100.1710 H      1258        0    0.0000
   7555 C         978.6667  233.9729  -99.0256 C.3    1259        0    0.0000
   7556 C         977.8933  235.2943  -99.0948 C.3    1259        0    0.0000
   7557 H         978.2881  233.3584  -98.1994 H      1259        0    0.0000
   7558 H         979.7255  234.1673  -98.8142 H      1259        0    0.0000
   7559 H         978.4453  236.0813  -98.5659 H      1259        0    0.0000
   7560 H         977.8000  235.6215 -100.1377 H      1259        0    0.0000
   7561 C         976.4596  235.1770  -98.4718 C.3    1260        0    0.0000
   7562 C         975.5094  236.2611  -98.9925 C.3    1260        0    0.0000
   7563 H         976.0558  234.1824  -98.6984 H      1260        0    0.0000
   7564 H         976.5422  235.2421  -97.3798 H      1260        0    0.0000
   7565 H         975.7068  236.4559 -100.0540 H      1260        0    0.0000
   7566 H         974.4705  235.9154  -98.9235 H      1260        0    0.0000
   7567 C         975.6487  237.6050  -98.1976 C.3    1261        0    0.0000
   7568 C         975.0148  238.7870  -98.9394 C.3    1261        0    0.0000
   7569 H         975.1802  237.4837  -97.2131 H      1261        0    0.0000
   7570 H         976.7132  237.8008  -98.0179 H      1261        0    0.0000
   7571 H         975.2831  238.7514 -100.0025 H      1261        0    0.0000
   7572 H         973.9211  238.7203  -98.8880 H      1261        0    0.0000
   7573 C         975.4650  240.1683  -98.3506 C.3    1262        0    0.0000
   7574 C         974.2872  241.1307  -98.1613 C.3    1262        0    0.0000
   7575 H         975.9683  239.9965  -97.3910 H      1262        0    0.0000
   7576 H         976.2100  240.6130  -99.0219 H      1262        0    0.0000
   7577 H         973.3532  240.5654  -98.0535 H      1262        0    0.0000
   7578 H         974.4162  241.7055  -97.2358 H      1262        0    0.0000
   7579 C         974.1378  242.1298  -99.3600 C.3    1263        0    0.0000
   7580 C         972.7762  242.8335  -99.3634 C.3    1263        0    0.0000
   7581 H         974.9443  242.8714  -99.3049 H      1263        0    0.0000
   7582 H         974.2792  241.5796 -100.2986 H      1263        0    0.0000
   7583 H         972.3782  242.8777 -100.3848 H      1263        0    0.0000
   7584 H         972.0547  242.2595  -98.7688 H      1263        0    0.0000
   7585 C         972.8586  244.2900  -98.7897 C.3    1264        0    0.0000
   7586 C         971.6384  244.6472  -97.9339 C.3    1264        0    0.0000
   7587 H         973.7758  244.3844  -98.1950 H      1264        0    0.0000
   7588 H         972.9512  244.9945  -99.6254 H      1264        0    0.0000
   7589 H         970.7536  244.7664  -98.5715 H      1264        0    0.0000
   7590 H         971.4160  243.8302  -97.2362 H      1264        0    0.0000
   7591 C         971.8526  245.9667  -97.1151 C.3    1265        0    0.0000
   7592 C         970.5865  246.8288  -97.0610 C.3    1265        0    0.0000
   7593 H         972.1727  245.7044  -96.0991 H      1265        0    0.0000
   7594 H         972.6750  246.5342  -97.5679 H      1265        0    0.0000
   7595 H         969.9845  246.6700  -97.9643 H      1265        0    0.0000
   7596 H         969.9629  246.5283  -96.2100 H      1265        0    0.0000
   7597 C         970.9131  248.3567  -96.9335 C.3    1266        0    0.0000
   7598 C         969.7753  249.1406  -96.2703 C.3    1266        0    0.0000
   7599 H         971.8377  248.4736  -96.3548 H      1266        0    0.0000
   7600 H         971.1146  248.7598  -97.9338 H      1266        0    0.0000
   7601 H         969.1099  248.4546  -95.7319 H      1266        0    0.0000
   7602 H         970.1818  249.8353  -95.5248 H      1266        0    0.0000
   7603 C         968.9291  249.9535  -97.3099 C.3    1267        0    0.0000
   7604 C         967.5251  250.2789  -96.7885 C.3    1267        0    0.0000
   7605 H         969.4637  250.8798  -97.5540 H      1267        0    0.0000
   7606 H         968.8605  249.3750  -98.2396 H      1267        0    0.0000
   7607 H         966.7915  250.1832  -97.5986 H      1267        0    0.0000
   7608 H         967.2350  249.5582  -96.0140 H      1267        0    0.0000
   7609 C         967.4333  251.7258  -96.1921 C.3    1268        0    0.0000
   7610 C         966.3113  251.8569  -95.1562 C.3    1268        0    0.0000
   7611 H         968.3978  251.9822  -95.7364 H      1268        0    0.0000
   7612 H         967.2733  252.4368  -97.0120 H      1268        0    0.0000
   7613 H         965.3356  251.8655  -95.6577 H      1268        0    0.0000
   7614 H         966.3138  250.9878  -94.4868 H      1268        0    0.0000
   7615 C         966.4478  253.1591  -94.2942 C.3    1269        0    0.0000
   7616 C         965.2242  254.0730  -94.4244 C.3    1269        0    0.0000
   7617 H         966.5950  252.8748  -93.2449 H      1269        0    0.0000
   7618 H         967.3528  253.6958  -94.6050 H      1269        0    0.0000
   7619 H         964.7665  253.9500  -95.4139 H      1269        0    0.0000
   7620 H         964.4626  253.7891  -93.6875 H      1269        0    0.0000
   7621 C         965.5869  255.5842  -94.2198 C.3    1270        0    0.0000
   7622 C         964.5057  256.3406  -93.4398 C.3    1270        0    0.0000
   7623 H         966.5464  255.6493  -93.6919 H      1270        0    0.0000
   7624 H         965.7358  256.0483  -95.2025 H      1270        0    0.0000
   7625 H         963.8846  255.6335  -92.8761 H      1270        0    0.0000
   7626 H         964.9705  257.0081  -92.7036 H      1270        0    0.0000
   7627 C         963.5803  257.1894  -94.3782 C.3    1271        0    0.0000
   7628 C         962.4497  257.8808  -93.6083 C.3    1271        0    0.0000
   7629 H         964.1932  257.9363  -94.8978 H      1271        0    0.0000
   7630 H         963.1621  256.5323  -95.1509 H      1271        0    0.0000
   7631 H         961.6384  258.1525  -94.2948 H      1271        0    0.0000
   7632 H         962.0206  257.1914  -92.8705 H      1271        0    0.0000
   7633 C         962.9389  259.1729  -92.8677 C.3    1272        0    0.0000
   7634 C         961.8531  259.7726  -91.9672 C.3    1272        0    0.0000
   7635 H         963.8265  258.9248  -92.2725 H      1272        0    0.0000
   7636 H         963.2570  259.9100  -93.6153 H      1272        0    0.0000
   7637 H         961.1606  258.9875  -91.6392 H      1272        0    0.0000
   7638 H         962.3060  260.1923  -91.0605 H      1272        0    0.0000
   7639 C         961.0357  260.8975  -92.6909 C.3    1273        0    0.0000
   7640 C         959.8967  261.4395  -91.8201 C.3    1273        0    0.0000
   7641 H         961.7192  261.7106  -92.9651 H      1273        0    0.0000
   7642 H         960.6332  260.4946  -93.6286 H      1273        0    0.0000
   7643 H         958.9663  261.4793  -92.3999 H      1273        0    0.0000
   7644 H         959.7135  260.7626  -90.9765 H      1273        0    0.0000
   7645 C         960.2057  262.8712  -91.2614 C.3    1274        0    0.0000
   7646 C         958.9715  263.5287  -90.6340 C.3    1274        0    0.0000
   7647 H         961.0096  262.7951  -90.5188 H      1274        0    0.0000
   7648 H         960.5896  263.4944  -92.0785 H      1274        0    0.0000
   7649 H         958.1027  263.4025  -91.2919 H      1274        0    0.0000
   7650 H         958.7233  263.0353  -89.6862 H      1274        0    0.0000
   7651 C         959.1848  265.0586  -90.3667 C.3    1275        0    0.0000
   7652 C         957.9833  265.6982  -89.6620 C.3    1275        0    0.0000
   7653 H         960.0896  265.1888  -89.7602 H      1275        0    0.0000
   7654 H         959.3715  265.5620  -91.3233 H      1275        0    0.0000
   7655 H         957.0750  265.5514  -90.2594 H      1275        0    0.0000
   7656 H         957.8082  265.2072  -88.6967 H      1275        0    0.0000
   7657 C         958.1854  267.2335  -89.4186 C.3    1276        0    0.0000
   7658 C         956.9025  267.9187  -88.9349 C.3    1276        0    0.0000
   7659 H         958.9865  267.3724  -88.6822 H      1276        0    0.0000
   7660 H         958.5307  267.6970  -90.3511 H      1276        0    0.0000
   7661 H         956.0352  267.5150  -89.4717 H      1276        0    0.0000
   7662 H         956.7411  267.7067  -87.8707 H      1276        0    0.0000
   7663 C         956.9453  269.4723  -89.1399 C.3    1277        0    0.0000
   7664 C         955.8198  270.1889  -88.3856 C.3    1277        0    0.0000
   7665 H         957.9204  269.8465  -88.8044 H      1277        0    0.0000
   7666 H         956.8765  269.6894  -90.2130 H      1277        0    0.0000
   7667 H         954.8443  269.8660  -88.7699 H      1277        0    0.0000
   7668 H         955.8458  269.9162  -87.3233 H      1277        0    0.0000
   7669 C         955.9206  271.7484  -88.5094 C.3    1278        0    0.0000
   7670 C         954.6738  272.4560  -87.9670 C.3    1278        0    0.0000
   7671 H         956.8118  272.0892  -87.9682 H      1278        0    0.0000
   7672 H         956.0729  272.0103  -89.5638 H      1278        0    0.0000
   7673 H         954.3425  273.2278  -88.6727 H      1278        0    0.0000
   7674 H         953.8474  271.7409  -87.8711 H      1278        0    0.0000
   7675 C         954.9292  273.1232  -86.5717 C.3    1279        0    0.0000
   7676 C         953.6554  273.2004  -85.7228 C.3    1279        0    0.0000
   7677 H         955.7003  272.5505  -86.0417 H      1279        0    0.0000
   7678 H         955.3372  274.1292  -86.7302 H      1279        0    0.0000
   7679 H         953.0486  272.2988  -85.8722 H      1279        0    0.0000
   7680 H         953.9148  273.2326  -84.6573 H      1279        0    0.0000
   7681 C         952.7858  274.4579  -86.0693 C.3    1280        0    0.0000
   7682 C         951.5139  274.5371  -85.2176 C.3    1280        0    0.0000
   7683 H         953.3935  275.3594  -85.9224 H      1280        0    0.0000
   7684 H         952.5240  274.4243  -87.1341 H      1280        0    0.0000
   7685 H         951.0813  273.5365  -85.0939 H      1280        0    0.0000
   7686 H         951.7567  274.9019  -84.2120 H      1280        0    0.0000
   7687 C         950.4332  275.4802  -85.8502 C.3    1281        0    0.0000
   7688 C         949.5431  276.1372  -84.7894 C.3    1281        0    0.0000
   7689 H         950.9402  276.2500  -86.4450 H      1281        0    0.0000
   7690 H         949.8193  274.8968  -86.5474 H      1281        0    0.0000
   7691 H         948.5377  276.3065  -85.1944 H      1281        0    0.0000
   7692 H         949.4271  275.4672  -83.9284 H      1281        0    0.0000
   7693 C         950.1241  277.5050  -84.2906 C.3    1282        0    0.0000
   7694 C         949.0952  278.3189  -83.4983 C.3    1282        0    0.0000
   7695 H         951.0071  277.3088  -83.6699 H      1282        0    0.0000
   7696 H         950.4705  278.0796  -85.1586 H      1282        0    0.0000
   7697 H         949.0596  279.3487  -83.8747 H      1282        0    0.0000
   7698 H         948.0924  277.8970  -83.6395 H      1282        0    0.0000
   7699 C         949.4177  278.3524  -81.9645 C.3    1283        0    0.0000
   7700 C         948.2911  278.9952  -81.1479 C.3    1283        0    0.0000
   7701 H         949.5953  277.3268  -81.6180 H      1283        0    0.0000
   7702 H         950.3541  278.9030  -81.8120 H      1283        0    0.0000
   7703 H         947.3494  278.9546  -81.7093 H      1283        0    0.0000
   7704 H         948.1298  278.4315  -80.2207 H      1283        0    0.0000
   7705 C         948.5986  280.4887  -80.7843 C.3    1284        0    0.0000
   7706 C         947.3540  281.3781  -80.8805 C.3    1284        0    0.0000
   7707 H         949.0110  280.5276  -79.7685 H      1284        0    0.0000
   7708 H         949.3809  280.8624  -81.4565 H      1284        0    0.0000
   7709 H         946.8226  281.1811  -81.8198 H      1284        0    0.0000
   7710 H         946.6569  281.1386  -80.0680 H      1284        0    0.0000
   7711 C         947.7072  282.9037  -80.8102 C.3    1285        0    0.0000
   7712 C         946.5637  283.7382  -80.2223 C.3    1285        0    0.0000
   7713 H         948.6138  283.0293  -80.2054 H      1285        0    0.0000
   7714 H         947.9503  283.2574  -81.8198 H      1285        0    0.0000
   7715 H         946.8350  284.8012  -80.2228 H      1285        0    0.0000
   7716 H         945.6675  283.6415  -80.8475 H      1285        0    0.0000
   7717 C         946.2068  283.3084  -78.7576 C.3    1286        0    0.0000
   7718 C         945.1387  284.2118  -78.1312 C.3    1286        0    0.0000
   7719 H         945.8597  282.2678  -78.7690 H      1286        0    0.0000
   7720 H         947.1203  283.3293  -78.1504 H      1286        0    0.0000
   7721 H         945.4310  284.4876  -77.1104 H      1286        0    0.0000
   7722 H         945.0567  285.1468  -78.6990 H      1286        0    0.0000
   7723 C         943.7310  283.5235  -78.0851 C.3    1287        0    0.0000
   7724 C         942.6019  284.4839  -78.4746 C.3    1287        0    0.0000
   7725 H         943.7383  282.6582  -78.7596 H      1287        0    0.0000
   7726 H         943.5611  283.1334  -77.0739 H      1287        0    0.0000
   7727 H         942.8243  284.9539  -79.4406 H      1287        0    0.0000
   7728 H         941.6639  283.9294  -78.6025 H      1287        0    0.0000
   7729 C         942.3823  285.6081  -77.4043 C.3    1288        0    0.0000
   7730 C         941.8318  286.8983  -78.0218 C.3    1288        0    0.0000
   7731 H         941.6937  285.2352  -76.6359 H      1288        0    0.0000
   7732 H         943.3365  285.8089  -76.9016 H      1288        0    0.0000
   7733 H         942.4580  287.2074  -78.8679 H      1288        0    0.0000
   7734 H         940.8253  286.7244  -78.4217 H      1288        0    0.0000
   7735 C         941.7677  288.0726  -76.9853 C.3    1289        0    0.0000
   7736 C         940.3755  288.7097  -76.9146 C.3    1289        0    0.0000
   7737 H         942.0566  287.6897  -75.9987 H      1289        0    0.0000
   7738 H         942.5137  288.8285  -77.2606 H      1289        0    0.0000
   7739 H         940.2817  289.4942  -77.6758 H      1289        0    0.0000
   7740 H         939.6069  287.9598  -77.1388 H      1289        0    0.0000
   7741 C         940.0781  289.3331  -75.5074 C.3    1290        0    0.0000
   7742 C         939.9426  290.8587  -75.5648 C.3    1290        0    0.0000
   7743 H         939.1568  288.8883  -75.1111 H      1290        0    0.0000
   7744 H         940.8848  289.0528  -74.8188 H      1290        0    0.0000
   7745 H         940.5312  291.2574  -76.4003 H      1290        0    0.0000
   7746 H         938.8984  291.1367  -75.7541 H      1290        0    0.0000
   7747 C         940.4165  291.5476  -74.2388 C.3    1291        0    0.0000
   7748 C         939.3530  292.4876  -73.6604 C.3    1291        0    0.0000
   7749 H         940.6693  290.7702  -73.5072 H      1291        0    0.0000
   7750 H         941.3406  292.1035  -74.4399 H      1291        0    0.0000
   7751 H         938.4381  291.9263  -73.4339 H      1291        0    0.0000
   7752 H         939.7037  292.9143  -72.7126 H      1291        0    0.0000
   7753 C         938.9980  293.6581  -74.6408 C.3    1292        0    0.0000
   7754 C         937.8619  294.5379  -74.1078 C.3    1292        0    0.0000
   7755 H         939.8968  294.2646  -74.8075 H      1292        0    0.0000
   7756 H         938.7200  293.2329  -75.6131 H      1292        0    0.0000
   7757 H         937.8204  295.4796  -74.6691 H      1292        0    0.0000
   7758 H         936.8969  294.0385  -74.2588 H      1292        0    0.0000
   7759 C         938.0286  294.8649  -72.5838 C.3    1293        0    0.0000
   7760 C         936.7082  295.2928  -71.9337 C.3    1293        0    0.0000
   7761 H         938.4294  293.9800  -72.0741 H      1293        0    0.0000
   7762 H         938.7773  295.6589  -72.4724 H      1293        0    0.0000
   7763 H         935.8629  294.9865  -72.5622 H      1293        0    0.0000
   7764 H         936.5829  294.7868  -70.9684 H      1293        0    0.0000
   7765 C         936.6329  296.8420  -71.7056 C.3    1294        0    0.0000
   7766 C         935.2722  297.2825  -71.1545 C.3    1294        0    0.0000
   7767 H         937.4321  297.1369  -71.0144 H      1294        0    0.0000
   7768 H         936.8356  297.3497  -72.6568 H      1294        0    0.0000
   7769 H         934.4791  296.6355  -71.5494 H      1294        0    0.0000
   7770 H         935.2548  297.1720  -70.0631 H      1294        0    0.0000
   7771 C         934.9379  298.7705  -71.5170 C.3    1295        0    0.0000
   7772 C         934.1558  299.4778  -70.4046 C.3    1295        0    0.0000
   7773 H         935.8749  299.3050  -71.7164 H      1295        0    0.0000
   7774 H         934.3615  298.7861  -72.4503 H      1295        0    0.0000
   7775 H         933.1505  299.0470  -70.3192 H      1295        0    0.0000
   7776 H         934.6499  299.3188  -69.4380 H      1295        0    0.0000
   7777 C         934.0253  301.0193  -70.6579 C.3    1296        0    0.0000
   7778 C         932.9545  301.6650  -69.7714 C.3    1296        0    0.0000
   7779 H         934.9988  301.4911  -70.4761 H      1296        0    0.0000
   7780 H         933.7875  301.1848  -71.7160 H      1296        0    0.0000
   7781 H         932.8914  302.7401  -69.9804 H      1296        0    0.0000
   7782 H         931.9694  301.2408  -70.0021 H      1296        0    0.0000
   7783 C         933.2466  301.4633  -68.2446 C.3    1297        0    0.0000
   7784 C         931.9976  301.6737  -67.3815 C.3    1297        0    0.0000
   7785 H         933.6439  300.4523  -68.0911 H      1297        0    0.0000
   7786 H         934.0361  302.1616  -67.9403 H      1297        0    0.0000
   7787 H         931.0952  301.4598  -67.9674 H      1297        0    0.0000
   7788 H         931.9999  300.9713  -66.5389 H      1297        0    0.0000
   7789 C         931.9017  303.1347  -66.8213 C.3    1298        0    0.0000
   7790 C         930.5104  303.4525  -66.2624 C.3    1298        0    0.0000
   7791 H         932.6598  303.2639  -66.0389 H      1298        0    0.0000
   7792 H         932.1544  303.8385  -67.6240 H      1298        0    0.0000
   7793 H         929.7371  303.1067  -66.9595 H      1298        0    0.0000
   7794 H         930.3506  302.9119  -65.3213 H      1298        0    0.0000
   7795 C         930.3095  304.9857  -66.0049 C.3    1299        0    0.0000
   7796 C         929.1839  305.2638  -65.0025 C.3    1299        0    0.0000
   7797 H         931.2527  305.4092  -65.6383 H      1299        0    0.0000
   7798 H         930.0928  305.4793  -66.9603 H      1299        0    0.0000
   7799 H         928.2516  304.7978  -65.3449 H      1299        0    0.0000
   7800 H         929.4242  304.8117  -64.0322 H      1299        0    0.0000
   7801 C         928.9364  306.7981  -64.7977 C.3    1300        0    0.0000
   7802 C         927.7331  307.0764  -63.8901 C.3    1300        0    0.0000
   7803 H         929.8413  307.2484  -64.3711 H      1300        0    0.0000
   7804 H         928.7841  307.2657  -65.7784 H      1300        0    0.0000
   7805 H         926.9720  306.2978  -64.0253 H      1300        0    0.0000
   7806 H         928.0391  307.0384  -62.8373 H      1300        0    0.0000
   7807 C         927.0829  308.4736  -64.1772 C.3    1301        0    0.0000
   7808 C         926.3533  309.0373  -62.9527 C.3    1301        0    0.0000
   7809 H         927.8674  309.1690  -64.5006 H      1301        0    0.0000
   7810 H         926.3850  308.3730  -65.0176 H      1301        0    0.0000
   7811 H         925.5799  308.3344  -62.6192 H      1301        0    0.0000
   7812 H         927.0549  309.1535  -62.1174 H      1301        0    0.0000
   7813 C         925.6833  310.4238  -63.2466 C.3    1302        0    0.0000
   7814 C         924.7747  310.8842  -62.1014 C.3    1302        0    0.0000
   7815 H         926.4709  311.1666  -63.4238 H      1302        0    0.0000
   7816 H         925.1068  310.3478  -64.1768 H      1302        0    0.0000
   7817 H         923.8467  311.3082  -62.5047 H      1302        0    0.0000
   7818 H         924.4859  310.0259  -61.4820 H      1302        0    0.0000
   7819 C         925.4652  311.9559  -61.1892 C.3    1303        0    0.0000
   7820 C         924.7480  312.1236  -59.8451 C.3    1303        0    0.0000
   7821 H         926.5089  311.6604  -61.0243 H      1303        0    0.0000
   7822 H         925.4896  312.9131  -61.7245 H      1303        0    0.0000
   7823 H         923.7244  312.4831  -60.0072 H      1303        0    0.0000
   7824 H         924.6649  311.1536  -59.3394 H      1303        0    0.0000
   7825 C         925.4911  313.1260  -58.8961 C.3    1304        0    0.0000
   7826 C         924.5177  313.9867  -58.0833 C.3    1304        0    0.0000
   7827 H         926.1434  312.5573  -58.2219 H      1304        0    0.0000
   7828 H         926.1450  313.7667  -59.5008 H      1304        0    0.0000
   7829 H         924.9111  315.0057  -57.9818 H      1304        0    0.0000
   7830 H         923.5591  314.0702  -58.6105 H      1304        0    0.0000
   7831 C         924.2583  313.4005  -56.6528 C.3    1305        0    0.0000
   7832 C         922.7734  313.4291  -56.2738 C.3    1305        0    0.0000
   7833 H         924.6354  312.3708  -56.6189 H      1305        0    0.0000
   7834 H         924.8436  313.9745  -55.9239 H      1305        0    0.0000
   7835 H         922.1537  313.3163  -57.1720 H      1305        0    0.0000
   7836 H         922.5361  312.5816  -55.6188 H      1305        0    0.0000
   7837 C         922.3715  314.7581  -55.5461 C.3    1306        0    0.0000
   7838 C         921.0126  315.2894  -56.0155 C.3    1306        0    0.0000
   7839 H         922.3511  314.5767  -54.4643 H      1306        0    0.0000
   7840 H         923.1511  315.5090  -55.7250 H      1306        0    0.0000
   7841 H         920.9742  315.3075  -57.1118 H      1306        0    0.0000
   7842 H         920.2111  314.6181  -55.6832 H      1306        0    0.0000
   7843 C         920.7200  316.7318  -55.4759 C.3    1307        0    0.0000
   7844 C         919.3664  316.8216  -54.7625 C.3    1307        0    0.0000
   7845 H         921.5261  317.0236  -54.7913 H      1307        0    0.0000
   7846 H         920.7499  317.4365  -56.3162 H      1307        0    0.0000
   7847 H         918.5549  316.8632  -55.4995 H      1307        0    0.0000
   7848 H         919.1986  315.9207  -54.1595 H      1307        0    0.0000
   7849 C         919.2679  318.0786  -53.8311 C.3    1308        0    0.0000
   7850 C         917.8390  318.6259  -53.7430 C.3    1308        0    0.0000
   7851 H         919.6290  317.8071  -52.8314 H      1308        0    0.0000
   7852 H         919.9449  318.8540  -54.2108 H      1308        0    0.0000
   7853 H         917.3635  318.5966  -54.7312 H      1308        0    0.0000
   7854 H         917.2335  317.9923  -53.0831 H      1308        0    0.0000
   7855 C         917.7986  320.0982  -53.2063 C.3    1309        0    0.0000
   7856 C         916.9439  320.2321  -51.9411 C.3    1309        0    0.0000
   7857 H         918.8249  320.4289  -53.0036 H      1309        0    0.0000
   7858 H         917.4071  320.7517  -53.9956 H      1309        0    0.0000
   7859 H         915.8809  320.2772  -52.2084 H      1309        0    0.0000
   7860 H         917.0717  319.3470  -51.3055 H      1309        0    0.0000
   7861 C         917.3104  321.5089  -51.1088 C.3    1310        0    0.0000
   7862 C         916.0791  322.1562  -50.4654 C.3    1310        0    0.0000
   7863 H         918.0364  321.2302  -50.3350 H      1310        0    0.0000
   7864 H         917.8126  322.2282  -51.7675 H      1310        0    0.0000
   7865 H         915.7196  322.9834  -51.0898 H      1310        0    0.0000
   7866 H         915.2603  321.4285  -50.4043 H      1310        0    0.0000
   7867 C         916.3783  322.7021  -49.0267 C.3    1311        0    0.0000
   7868 C         915.1005  323.0955  -48.2773 C.3    1311        0    0.0000
   7869 H         916.9235  321.9344  -48.4635 H      1311        0    0.0000
   7870 H         917.0477  323.5673  -49.1090 H      1311        0    0.0000
   7871 H         914.2471  322.5244  -48.6633 H      1311        0    0.0000
   7872 H         915.1946  322.8416  -47.2142 H      1311        0    0.0000
   7873 C         914.7839  324.6255  -48.4052 C.3    1312        0    0.0000
   7874 C         913.3135  324.9412  -48.1097 C.3    1312        0    0.0000
   7875 H         915.4335  325.1798  -47.7165 H      1312        0    0.0000
   7876 H         915.0436  324.9568  -49.4184 H      1312        0    0.0000
   7877 H         912.9319  325.6696  -48.8359 H      1312        0    0.0000
   7878 H         912.7045  324.0357  -48.2220 H      1312        0    0.0000
   7879 C         913.1074  325.5128  -46.6647 C.3    1313        0    0.0000
   7880 C         911.6250  325.6469  -46.2991 C.3    1313        0    0.0000
   7881 H         913.6134  324.8538  -45.9482 H      1313        0    0.0000
   7882 H         913.6014  326.4901  -46.5972 H      1313        0    0.0000
   7883 H         911.0927  326.1993  -47.0833 H      1313        0    0.0000
   7884 H         911.1605  324.6547  -46.2419 H      1313        0    0.0000
   7885 C         911.4147  326.3828  -44.9310 C.3    1314        0    0.0000
   7886 C         910.3004  327.4328  -45.0015 C.3    1314        0    0.0000
   7887 H         911.1811  325.6375  -44.1608 H      1314        0    0.0000
   7888 H         912.3593  326.8561  -44.6352 H      1314        0    0.0000
   7889 H         910.2758  327.8888  -45.9990 H      1314        0    0.0000
   7890 H         909.3243  326.9561  -44.8489 H      1314        0    0.0000
   7891 C         910.4825  328.5651  -43.9327 C.3    1315        0    0.0000
   7892 C         909.1873  328.8532  -43.1655 C.3    1315        0    0.0000
   7893 H         911.2751  328.2683  -43.2346 H      1315        0    0.0000
   7894 H         910.8312  329.4747  -44.4371 H      1315        0    0.0000
   7895 H         908.3906  329.1351  -43.8649 H      1315        0    0.0000
   7896 H         908.8469  327.9475  -42.6485 H      1315        0    0.0000
   7897 C         909.3637  330.0003  -42.1117 C.3    1316        0    0.0000
   7898 C         908.0201  330.5641  -41.6363 C.3    1316        0    0.0000
   7899 H         909.9319  329.6116  -41.2575 H      1316        0    0.0000
   7900 H         909.9705  330.7989  -42.5565 H      1316        0    0.0000
   7901 H         907.6594  331.3224  -42.3423 H      1316        0    0.0000
   7902 H         907.2648  329.7687  -41.6152 H      1316        0    0.0000
   7903 C         908.1168  331.2071  -40.2099 C.3    1317        0    0.0000
   7904 C         906.7454  331.6214  -39.6653 C.3    1317        0    0.0000
   7905 H         908.5903  330.4885  -39.5295 H      1317        0    0.0000
   7906 H         908.7809  332.0789  -40.2593 H      1317        0    0.0000
   7907 H         906.0383  331.7599  -40.4927 H      1317        0    0.0000
   7908 H         906.3362  330.8251  -39.0312 H      1317        0    0.0000
   7909 C         906.8130  332.9469  -38.8312 C.3    1318        0    0.0000
   7910 C         905.4211  333.4855  -38.4825 C.3    1318        0    0.0000
   7911 H         907.3843  332.7587  -37.9138 H      1318        0    0.0000
   7912 H         907.3738  333.6965  -39.4034 H      1318        0    0.0000
   7913 H         905.1258  334.2589  -39.2022 H      1318        0    0.0000
   7914 H         904.6772  332.6829  -38.5595 H      1318        0    0.0000
   7915 C         905.3632  334.0912  -37.0377 C.3    1319        0    0.0000
   7916 C         903.9244  334.2906  -36.5487 C.3    1319        0    0.0000
   7917 H         905.9042  333.4258  -36.3534 H      1319        0    0.0000
   7918 H         905.8978  335.0491  -37.0342 H      1319        0    0.0000
   7919 H         903.2561  334.4548  -37.4031 H      1319        0    0.0000
   7920 H         903.5704  333.3844  -36.0415 H      1319        0    0.0000
   7921 C         903.7941  335.5039  -35.5647 C.3    1320        0    0.0000
   7922 C         902.3416  335.9640  -35.3989 C.3    1320        0    0.0000
   7923 H         904.2109  335.2163  -34.5916 H      1320        0    0.0000
   7924 H         904.4102  336.3307  -35.9394 H      1320        0    0.0000
   7925 H         902.0150  336.5084  -36.2937 H      1320        0    0.0000
   7926 H         901.6803  335.0942  -35.3005 H      1320        0    0.0000
   7927 C         902.1503  336.8884  -34.1474 C.3    1321        0    0.0000
   7928 C         900.7294  336.8088  -33.5782 C.3    1321        0    0.0000
   7929 H         902.8795  336.6001  -33.3801 H      1321        0    0.0000
   7930 H         902.3842  337.9217  -34.4319 H      1321        0    0.0000
   7931 H         900.0079  337.1855  -34.3138 H      1321        0    0.0000
   7932 H         900.4614  335.7634  -33.3807 H      1321        0    0.0000
   7933 C         900.5739  337.6295  -32.2517 C.3    1322        0    0.0000
   7934 C         899.2062  338.3136  -32.1488 C.3    1322        0    0.0000
   7935 H         900.7223  336.9552  -31.3992 H      1322        0    0.0000
   7936 H         901.3739  338.3788  -32.2037 H      1322        0    0.0000
   7937 H         899.0419  338.9588  -33.0207 H      1322        0    0.0000
   7938 H         898.4078  337.5613  -32.1586 H      1322        0    0.0000
   7939 C         899.0705  339.1777  -30.8479 C.3    1323        0    0.0000
   7940 C         897.6074  339.4171  -30.4596 C.3    1323        0    0.0000
   7941 H         899.5987  338.6714  -30.0305 H      1323        0    0.0000
   7942 H         899.5796  340.1366  -31.0057 H      1323        0    0.0000
   7943 H         897.0866  339.9492  -31.2653 H      1323        0    0.0000
   7944 H         897.0908  338.4579  -30.3303 H      1323        0    0.0000
   7945 C         897.4719  340.2464  -29.1362 C.3    1324        0    0.0000
   7946 C         896.0153  340.6047  -28.8218 C.3    1324        0    0.0000
   7947 H         897.9036  339.6673  -28.3104 H      1324        0    0.0000
   7948 H         898.0726  341.1598  -29.2283 H      1324        0    0.0000
   7949 H         895.5829  341.1812  -29.6489 H      1324        0    0.0000
   7950 H         895.4153  339.6913  -28.7269 H      1324        0    0.0000
   7951 C         895.8802  341.4375  -27.5006 C.3    1325        0    0.0000
   7952 C         894.4175  341.7104  -27.1329 C.3    1325        0    0.0000
   7953 H         896.3773  340.8939  -26.6876 H      1325        0    0.0000
   7954 H         896.4204  342.3846  -27.6227 H      1325        0    0.0000
   7955 H         893.9229  342.2620  -27.9420 H      1325        0    0.0000
   7956 H         893.8751  340.7635  -27.0198 H      1325        0    0.0000
   7957 C         894.2821  342.5320  -25.8047 C.3    1326        0    0.0000
   7958 C         892.8192  342.7928  -25.4296 C.3    1326        0    0.0000
   7959 H         894.7856  341.9852  -24.9978 H      1326        0    0.0000
   7960 H         894.8159  343.4833  -25.9215 H      1326        0    0.0000
   7961 H         892.3211  343.3572  -26.2277 H      1326        0    0.0000
   7962 H         892.2805  341.8420  -25.3328 H      1326        0    0.0000
   7963 C         892.6832  343.5897  -24.0865 C.3    1327        0    0.0000
   7964 C         891.2198  343.8336  -23.7014 C.3    1327        0    0.0000
   7965 H         893.1935  343.0322  -23.2914 H      1327        0    0.0000
   7966 H         893.2098  344.5467  -24.1883 H      1327        0    0.0000
   7967 H         890.7187  344.4208  -24.4808 H      1327        0    0.0000
   7968 H         890.6846  342.8783  -23.6335 H      1327        0    0.0000
   7969 C         891.0831  344.5877  -22.3339 C.3    1328        0    0.0000
   7970 C         889.6198  344.8322  -21.9492 C.3    1328        0    0.0000
   7971 H         891.5839  344.0001  -21.5545 H      1328        0    0.0000
   7972 H         891.6188  345.5426  -22.4017 H      1328        0    0.0000
   7973 H         889.1230  345.4322  -22.7216 H      1328        0    0.0000
   7974 H         889.0805  343.8783  -21.8958 H      1328        0    0.0000
   7975 C         889.4826  345.5680  -20.5718 C.3    1329        0    0.0000
   7976 C         888.0190  345.7747  -20.1669 C.3    1329        0    0.0000
   7977 H         890.0062  344.9836  -19.8050 H      1329        0    0.0000
   7978 H         889.9957  346.5356  -20.6352 H      1329        0    0.0000
   7979 H         887.5051  346.3903  -20.9155 H      1329        0    0.0000
   7980 H         887.4965  344.8105  -20.1394 H      1329        0    0.0000
   7981 C         887.8819  346.4638  -18.7656 C.3    1330        0    0.0000
   7982 C         886.4182  346.6690  -18.3598 C.3    1330        0    0.0000
   7983 H         888.3970  345.8489  -18.0172 H      1330        0    0.0000
   7984 H         888.4033  347.4287  -18.7934 H      1330        0    0.0000
   7985 H         885.9133  347.3164  -19.0875 H      1330        0    0.0000
   7986 H         885.8870  345.7092  -18.3702 H      1330        0    0.0000
   7987 C         886.2805  347.3073  -16.9347 C.3    1331        0    0.0000
   7988 C         884.8167  347.4996  -16.5233 C.3    1331        0    0.0000
   7989 H         886.7942  346.6651  -16.2085 H      1331        0    0.0000
   7990 H         886.8032  348.2719  -16.9273 H      1331        0    0.0000
   7991 H         884.3073  348.1543  -17.2411 H      1331        0    0.0000
   7992 H         884.2902  346.5375  -16.5456 H      1331        0    0.0000
   7993 C         884.6788  348.1180  -15.0894 C.3    1332        0    0.0000
   7994 C         883.2167  348.2348  -14.6453 C.3    1332        0    0.0000
   7995 H         885.2387  347.4953  -14.3805 H      1332        0    0.0000
   7996 H         885.1539  349.1068  -15.0835 H      1332        0    0.0000
   7997 H         882.6653  348.8871  -15.3339 H      1332        0    0.0000
   7998 H         882.7314  347.2517  -14.6861 H      1332        0    0.0000
   7999 C         883.0810  348.8052  -13.1914 C.3    1333        0    0.0000
   8000 C         881.6201  348.8961  -12.7371 C.3    1333        0    0.0000
   8001 H         883.6490  348.1644  -12.5057 H      1333        0    0.0000
   8002 H         883.5485  349.7971  -13.1557 H      1333        0    0.0000
   8003 H         881.0610  349.5677  -13.4003 H      1333        0    0.0000
   8004 H         881.1417  347.9115  -12.8096 H      1333        0    0.0000
   8005 C         881.4872  349.4151  -11.2638 C.3    1334        0    0.0000
   8006 C         880.0295  349.4582  -10.7923 C.3    1334        0    0.0000
   8007 H         882.0766  348.7649  -10.6054 H      1334        0    0.0000
   8008 H         881.9330  350.4155  -11.1998 H      1334        0    0.0000
   8009 H         879.4440  350.1218  -11.4406 H      1334        0    0.0000
   8010 H         879.5787  348.4613  -10.8725 H      1334        0    0.0000
   8011 C         879.8986  349.9543   -9.3111 C.3    1335        0    0.0000
   8012 C         878.4443  349.9616   -8.8273 C.3    1335        0    0.0000
   8013 H         880.5063  349.3072   -8.6664 H      1335        0    0.0000
   8014 H         880.3248  350.9625   -9.2369 H      1335        0    0.0000
   8015 H         877.8693  350.7179   -9.3757 H      1335        0    0.0000
   8016 H         877.9730  348.9935   -9.0378 H      1335        0    0.0000
   8017 C         878.3305  350.2557   -7.2917 C.3    1336        0    0.0000
   8018 C         876.8750  350.2855   -6.8123 C.3    1336        0    0.0000
   8019 H         878.8919  349.4897   -6.7424 H      1336        0    0.0000
   8020 H         878.8165  351.2159   -7.0786 H      1336        0    0.0000
   8021 H         876.3337  351.1030   -7.3044 H      1336        0    0.0000
   8022 H         876.3666  349.3556   -7.0954 H      1336        0    0.0000
   8023 C         876.7646  350.4692   -5.2594 C.3    1337        0    0.0000
   8024 C         875.3094  350.4873   -4.7786 C.3    1337        0    0.0000
   8025 H         877.3133  349.6566   -4.7673 H      1337        0    0.0000
   8026 H         877.2657  351.4036   -4.9773 H      1337        0    0.0000
   8027 H         874.8105  351.4011   -5.1242 H      1337        0    0.0000
   8028 H         874.7591  349.6440   -5.2137 H      1337        0    0.0000
   8029 C         875.1988  350.4109   -3.2167 C.3    1338        0    0.0000
   8030 C         873.7430  350.4024   -2.7373 C.3    1338        0    0.0000
   8031 H         875.7145  349.5070   -2.8695 H      1338        0    0.0000
   8032 H         875.7330  351.2650   -2.7822 H      1338        0    0.0000
   8033 H         873.2750  351.3738   -2.9388 H      1338        0    0.0000
   8034 H         873.1677  349.6535   -3.2955 H      1338        0    0.0000
   8035 C         873.6239  350.0922   -1.2053 C.3    1339        0    0.0000
   8036 C         872.1711  350.1225   -0.7177 C.3    1339        0    0.0000
   8037 H         874.0664  349.1078   -1.0083 H      1339        0    0.0000
   8038 H         874.2228  350.8238   -0.6488 H      1339        0    0.0000
   8039 H         872.1095  350.6376    0.2489 H      1339        0    0.0000
   8040 H         871.5508  350.6938   -1.4193 H      1339        0    0.0000
   8041 C         871.5662  348.6845   -0.5635 C.3    1340        0    0.0000
   8042 C         870.2015  348.7003    0.1339 C.3    1340        0    0.0000
   8043 H         871.4750  348.2307   -1.5582 H      1340        0    0.0000
   8044 H         872.2709  348.0633    0.0028 H      1340        0    0.0000
   8045 H         869.5022  348.0391   -0.3928 H      1340        0    0.0000
   8046 H         870.2962  348.3096    1.1547 H      1340        0    0.0000
   8047 C         869.5841  350.1397    0.1991 C.3    1341        0    0.0000
   8048 C         868.2093  350.1520    0.8764 C.3    1341        0    0.0000
   8049 H         870.2759  350.7971    0.7402 H      1341        0    0.0000
   8050 H         869.5048  350.5369   -0.8205 H      1341        0    0.0000
   8051 H         867.5003  350.7372    0.2778 H      1341        0    0.0000
   8052 H         867.8083  349.1324    0.9320 H      1341        0    0.0000
   8053 C         868.2652  350.7525    2.3234 C.3    1342        0    0.0000
   8054 C         867.4751  349.9117    3.3322 C.3    1342        0    0.0000
   8055 H         869.3144  350.8264    2.6353 H      1342        0    0.0000
   8056 H         867.8715  351.7762    2.2969 H      1342        0    0.0000
   8057 H         867.7098  348.8481    3.2011 H      1342        0    0.0000
   8058 H         867.7706  350.1757    4.3553 H      1342        0    0.0000
   8059 C         865.9268  350.1091    3.1868 C.3    1343        0    0.0000
   8060 C         865.1343  348.9293    3.7608 C.3    1343        0    0.0000
   8061 H         865.6395  351.0379    3.6949 H      1343        0    0.0000
   8062 H         865.6855  350.2431    2.1250 H      1343        0    0.0000
   8063 H         864.3395  348.6355    3.0641 H      1343        0    0.0000
   8064 H         865.7896  348.0572    3.8772 H      1343        0    0.0000
   8065 C         864.4899  349.2661    5.1496 C.3    1344        0    0.0000
   8066 C         864.2512  348.0124    5.9985 C.3    1344        0    0.0000
   8067 H         865.1468  349.9631    5.6846 H      1344        0    0.0000
   8068 H         863.5422  349.7924    4.9814 H      1344        0    0.0000
   8069 H         863.5284  347.3536    5.5014 H      1344        0    0.0000
   8070 H         865.1828  347.4413    6.0962 H      1344        0    0.0000
   8071 C         863.7178  348.3579    7.4315 C.3    1345        0    0.0000
   8072 C         862.7973  347.2657    7.9875 C.3    1345        0    0.0000
   8073 H         864.5739  348.5053    8.1015 H      1345        0    0.0000
   8074 H         863.1828  349.3147    7.3885 H      1345        0    0.0000
   8075 H         861.9301  347.7205    8.4819 H      1345        0    0.0000
   8076 H         862.4059  346.6504    7.1679 H      1345        0    0.0000
   8077 C         863.5322  346.3343    9.0121 C.3    1346        0    0.0000
   8078 C         862.6486  345.1719    9.4781 C.3    1346        0    0.0000
   8079 H         864.4470  345.9479    8.5458 H      1346        0    0.0000
   8080 H         863.8477  346.9358    9.8736 H      1346        0    0.0000
   8081 H         861.8840  344.9541    8.7220 H      1346        0    0.0000
   8082 H         863.2512  344.2619    9.5879 H      1346        0    0.0000
   8083 C         861.9382  345.4753   10.8422 C.3    1347        0    0.0000
   8084 C         860.6171  344.7129   10.9913 C.3    1347        0    0.0000
   8085 H         862.6188  345.2125   11.6614 H      1347        0    0.0000
   8086 H         861.7596  346.5554   10.9152 H      1347        0    0.0000
   8087 H         859.8394  345.3807   11.3822 H      1347        0    0.0000
   8088 H         860.2703  344.3657   10.0102 H      1347        0    0.0000
   8089 C         860.7489  343.4772   11.9469 C.3    1348        0    0.0000
   8090 C         859.3992  342.8006   12.2112 C.3    1348        0    0.0000
   8091 H         861.4489  342.7591   11.5019 H      1348        0    0.0000
   8092 H         861.1956  343.8077   12.8928 H      1348        0    0.0000
   8093 H         858.8798  343.3064   13.0345 H      1348        0    0.0000
   8094 H         858.7538  342.8911   11.3287 H      1348        0    0.0000
   8095 C         859.5557  341.2825   12.5693 C.3    1349        0    0.0000
   8096 C         858.6882  340.8755   13.7656 C.3    1349        0    0.0000
   8097 H         859.2895  340.6826   11.6903 H      1349        0    0.0000
   8098 H         860.6118  341.0767   12.7831 H      1349        0    0.0000
   8099 H         859.1494  340.0325   14.2950 H      1349        0    0.0000
   8100 H         858.6260  341.7024   14.4837 H      1349        0    0.0000
   8101 C         857.2365  340.4691   13.3359 C.3    1350        0    0.0000
   8102 C         856.3038  340.2888   14.5386 C.3    1350        0    0.0000
   8103 H         856.8383  341.2387   12.6631 H      1350        0    0.0000
   8104 H         857.2866  339.5391   12.7561 H      1350        0    0.0000
   8105 H         856.5504  341.0196   15.3188 H      1350        0    0.0000
   8106 H         855.2656  340.4828   14.2420 H      1350        0    0.0000
   8107 C         856.3938  338.8478   15.1494 C.3    1351        0    0.0000
   8108 C         855.7146  338.7545   16.5203 C.3    1351        0    0.0000
   8109 H         855.9317  338.1385   14.4517 H      1351        0    0.0000
   8110 H         857.4503  338.5645   15.2331 H      1351        0    0.0000
   8111 H         856.3936  339.1172   17.3020 H      1351        0    0.0000
   8112 H         854.8295  339.4021   16.5464 H      1351        0    0.0000
   8113 C         855.2792  337.2895   16.8691 C.3    1352        0    0.0000
   8114 C         854.8702  337.1394   18.3386 C.3    1352        0    0.0000
   8115 H         854.4459  337.0032   16.2156 H      1352        0    0.0000
   8116 H         856.1086  336.6096   16.6383 H      1352        0    0.0000
   8117 H         855.6804  337.4864   18.9919 H      1352        0    0.0000
   8118 H         853.9998  337.7717   18.5533 H      1352        0    0.0000
   8119 C         854.5215  335.6568   18.7098 C.3    1353        0    0.0000
   8120 C         853.7101  335.5580   20.0063 C.3    1353        0    0.0000
   8121 H         853.9617  335.2069   17.8805 H      1353        0    0.0000
   8122 H         855.4544  335.0875   18.8055 H      1353        0    0.0000
   8123 H         854.2321  336.0805   20.8175 H      1353        0    0.0000
   8124 H         852.7410  336.0570   19.8824 H      1353        0    0.0000
   8125 C         853.4615  334.0722   20.4398 C.3    1354        0    0.0000
   8126 C         852.8377  333.9712   21.8362 C.3    1354        0    0.0000
   8127 H         852.8082  333.5926   19.7004 H      1354        0    0.0000
   8128 H         854.4160  333.5320   20.4143 H      1354        0    0.0000
   8129 H         853.3209  334.6834   22.5164 H      1354        0    0.0000
   8130 H         851.7764  334.2455   21.7947 H      1354        0    0.0000
   8131 C         852.9639  332.5302   22.4404 C.3    1355        0    0.0000
   8132 C         851.7640  332.1620   23.3200 C.3    1355        0    0.0000
   8133 H         853.0634  331.8098   21.6190 H      1355        0    0.0000
   8134 H         853.8906  332.4716   23.0246 H      1355        0    0.0000
   8135 H         851.6110  332.9300   24.0883 H      1355        0    0.0000
   8136 H         850.8489  332.1344   22.7155 H      1355        0    0.0000
   8137 C         851.9468  330.7730   24.0234 C.3    1356        0    0.0000
   8138 C         850.9669  330.5768   25.1854 C.3    1356        0    0.0000
   8139 H         851.8112  329.9789   23.2787 H      1356        0    0.0000
   8140 H         852.9797  330.6928   24.3847 H      1356        0    0.0000
   8141 H         851.0269  331.4273   25.8757 H      1356        0    0.0000
   8142 H         849.9371  330.5491   24.8084 H      1356        0    0.0000
   8143 C         851.2484  329.2573   25.9836 C.3    1357        0    0.0000
   8144 C         849.9633  328.6184   26.5215 C.3    1357        0    0.0000
   8145 H         851.7728  328.5519   25.3271 H      1357        0    0.0000
   8146 H         851.9311  329.4839   26.8119 H      1357        0    0.0000
   8147 H         849.4078  329.3442   27.1282 H      1357        0    0.0000
   8148 H         849.3068  328.3357   25.6892 H      1357        0    0.0000
   8149 C         850.2512  327.3470   27.3922 C.3    1358        0    0.0000
   8150 C         849.0197  326.8946   28.1846 C.3    1358        0    0.0000
   8151 H         850.5935  326.5382   26.7348 H      1358        0    0.0000
   8152 H         851.0791  327.5678   28.0774 H      1358        0    0.0000
   8153 H         848.6742  327.7053   28.8379 H      1358        0    0.0000
   8154 H         848.1935  326.6686   27.4991 H      1358        0    0.0000
   8155 C         849.3097  325.6279   29.0613 C.3    1359        0    0.0000
   8156 C         848.0234  324.9494   29.5452 C.3    1359        0    0.0000
   8157 H         849.9097  324.9214   28.4744 H      1359        0    0.0000
   8158 H         849.9241  325.9254   29.9201 H      1359        0    0.0000
   8159 H         847.4163  325.6603   30.1195 H      1359        0    0.0000
   8160 H         847.4160  324.6385   28.6862 H      1359        0    0.0000
   8161 C         848.3136  323.6950   30.4394 C.3    1360        0    0.0000
   8162 C         847.0374  323.1170   31.0610 C.3    1360        0    0.0000
   8163 H         848.8128  322.9329   29.8282 H      1360        0    0.0000
   8164 H         849.0209  323.9792   31.2284 H      1360        0    0.0000
   8165 H         846.4691  323.9115   31.5604 H      1360        0    0.0000
   8166 H         846.3875  322.7104   30.2763 H      1360        0    0.0000
   8167 C         847.3432  321.9845   32.1009 C.3    1361        0    0.0000
   8168 C         846.1039  321.1428   32.4243 C.3    1361        0    0.0000
   8169 H         848.1394  321.3438   31.7020 H      1361        0    0.0000
   8170 H         847.7366  322.4424   33.0170 H      1361        0    0.0000
   8171 H         845.2941  321.7888   32.7853 H      1361        0    0.0000
   8172 H         845.7344  320.6526   31.5150 H      1361        0    0.0000
   8173 C         846.3960  320.0465   33.5061 C.3    1362        0    0.0000
   8174 C         845.1898  319.1321   33.7469 C.3    1362        0    0.0000
   8175 H         847.2599  319.4524   33.1833 H      1362        0    0.0000
   8176 H         846.6857  320.5412   34.4415 H      1362        0    0.0000
   8177 H         844.3323  319.7234   34.0912 H      1362        0    0.0000
   8178 H         844.8862  318.6546   32.8070 H      1362        0    0.0000
   8179 C         845.4921  318.0164   34.8058 C.3    1363        0    0.0000
   8180 C         844.2523  317.1781   35.1364 C.3    1363        0    0.0000
   8181 H         846.2912  317.3707   34.4209 H      1363        0    0.0000
   8182 H         845.8804  318.4891   35.7165 H      1363        0    0.0000
   8183 H         843.4598  317.8212   35.5387 H      1363        0    0.0000
   8184 H         843.8532  316.7203   34.2228 H      1363        0    0.0000
   8185 C         844.5606  316.0458   36.1759 C.3    1364        0    0.0000
   8186 C         843.3181  315.2153   36.5157 C.3    1364        0    0.0000
   8187 H         845.3469  315.3975   35.7697 H      1364        0    0.0000
   8188 H         844.9681  316.5028   37.0861 H      1364        0    0.0000
   8189 H         842.5392  315.8604   36.9407 H      1364        0    0.0000
   8190 H         842.8988  314.7749   35.6026 H      1364        0    0.0000
   8191 C         843.6324  314.0650   37.5333 C.3    1365        0    0.0000
   8192 C         842.3909  313.2320   37.8700 C.3    1365        0    0.0000
   8193 H         844.4135  313.4217   37.1095 H      1365        0    0.0000
   8194 H         844.0491  314.5057   38.4475 H      1365        0    0.0000
   8195 H         841.6130  313.8738   38.3021 H      1365        0    0.0000
   8196 H         841.9691  312.7986   36.9547 H      1365        0    0.0000
   8197 C         842.7078  312.0739   38.8780 C.3    1366        0    0.0000
   8198 C         841.4713  311.2263   39.1963 C.3    1366        0    0.0000
   8199 H         843.4979  311.4421   38.4535 H      1366        0    0.0000
   8200 H         843.1134  312.5087   39.7999 H      1366        0    0.0000
   8201 H         840.6830  311.8572   39.6254 H      1366        0    0.0000
   8202 H         841.0627  310.7956   38.2737 H      1366        0    0.0000
   8203 C         841.7897  310.0639   40.1988 C.3    1367        0    0.0000
   8204 C         840.5583  309.2024   40.4994 C.3    1367        0    0.0000
   8205 H         842.5895  309.4426   39.7772 H      1367        0    0.0000
   8206 H         842.1825  310.4957   41.1276 H      1367        0    0.0000
   8207 H         839.7612  309.8223   40.9284 H      1367        0    0.0000
   8208 H         840.1606  308.7770   39.5696 H      1367        0    0.0000
   8209 C         840.8793  308.0333   41.4932 C.3    1368        0    0.0000
   8210 C         839.6487  307.1696   41.7910 C.3    1368        0    0.0000
   8211 H         841.6782  307.4150   41.0654 H      1368        0    0.0000
   8212 H         841.2745  308.4589   42.4240 H      1368        0    0.0000
   8213 H         838.8531  307.7861   42.2276 H      1368        0    0.0000
   8214 H         839.2480  306.7518   40.8592 H      1368        0    0.0000
   8215 C         839.9730  305.9925   42.7742 C.3    1369        0    0.0000
   8216 C         838.7430  305.1275   43.0703 C.3    1369        0    0.0000
   8217 H         840.7697  305.3770   42.3384 H      1369        0    0.0000
   8218 H         840.3721  306.4105   43.7067 H      1369        0    0.0000
   8219 H         837.9490  305.7414   43.5134 H      1369        0    0.0000
   8220 H         838.3391  304.7159   42.1370 H      1369        0    0.0000
   8221 C         839.0696  303.9437   44.0447 C.3    1370        0    0.0000
   8222 C         837.8463  303.0618   44.3180 C.3    1370        0    0.0000
   8223 H         839.8779  303.3418   43.6113 H      1370        0    0.0000
   8224 H         839.4539  304.3562   44.9858 H      1370        0    0.0000
   8225 H         837.0388  303.6633   44.7536 H      1370        0    0.0000
   8226 H         837.4607  302.6513   43.3766 H      1370        0    0.0000
   8227 C         838.1738  301.8761   45.2897 C.3    1371        0    0.0000
   8228 C         836.9606  300.9713   45.5316 C.3    1371        0    0.0000
   8229 H         839.0009  301.2915   44.8682 H      1371        0    0.0000
   8230 H         838.5319  302.2876   46.2416 H      1371        0    0.0000
   8231 H         836.1364  301.5541   45.9611 H      1371        0    0.0000
   8232 H         836.5973  300.5666   44.5789 H      1371        0    0.0000
   8233 C         837.2913  299.7787   46.4939 C.3    1372        0    0.0000
   8234 C         836.0410  298.9823   46.8828 C.3    1372        0    0.0000
   8235 H         838.0193  299.1204   46.0038 H      1372        0    0.0000
   8236 H         837.7798  300.1747   47.3928 H      1372        0    0.0000
   8237 H         835.3246  299.6344   47.3977 H      1372        0    0.0000
   8238 H         835.5370  298.6098   45.9823 H      1372        0    0.0000
   8239 C         836.3767  297.7662   47.8134 C.3    1373        0    0.0000
   8240 C         835.3239  296.6563   47.7215 C.3    1373        0    0.0000
   8241 H         837.3631  297.3726   47.5388 H      1373        0    0.0000
   8242 H         836.4570  298.1240   48.8475 H      1373        0    0.0000
   8243 H         834.3277  297.0643   47.9333 H      1373        0    0.0000
   8244 H         835.2891  296.2542   46.7013 H      1373        0    0.0000
   8245 C         835.6109  295.4810   48.7184 C.3    1374        0    0.0000
   8246 C         834.3573  295.0547   49.4902 C.3    1374        0    0.0000
   8247 H         836.0135  294.6300   48.1551 H      1374        0    0.0000
   8248 H         836.3951  295.7947   49.4185 H      1374        0    0.0000
   8249 H         833.9634  295.9018   50.0653 H      1374        0    0.0000
   8250 H         833.5678  294.7553   48.7896 H      1374        0    0.0000
   8251 C         834.6396  293.8653   50.4715 C.3    1375        0    0.0000
   8252 C         833.8118  292.6214   50.1301 C.3    1375        0    0.0000
   8253 H         835.7097  293.6257   50.4383 H      1375        0    0.0000
   8254 H         834.4218  294.1926   51.4957 H      1375        0    0.0000
   8255 H         832.7455  292.8772   50.0951 H      1375        0    0.0000
   8256 H         834.0803  292.2531   49.1322 H      1375        0    0.0000
   8257 C         834.0203  291.4655   51.1683 C.3    1376        0    0.0000
   8258 C         834.5796  290.1951   50.5185 C.3    1376        0    0.0000
   8259 H         834.6993  291.8156   51.9556 H      1376        0    0.0000
   8260 H         833.0605  291.2487   51.6535 H      1376        0    0.0000
   8261 H         833.7604  289.5124   50.2609 H      1376        0    0.0000
   8262 H         835.0881  290.4456   49.5792 H      1376        0    0.0000
   8263 C         835.5882  289.4438   51.4543 C.3    1377        0    0.0000
   8264 C         834.8840  288.4645   52.4000 C.3    1377        0    0.0000
   8265 H         836.3161  288.9084   50.8322 H      1377        0    0.0000
   8266 H         836.1531  290.1851   52.0330 H      1377        0    0.0000
   8267 H         833.8348  288.7570   52.5313 H      1377        0    0.0000
   8268 H         834.8782  287.4582   51.9632 H      1377        0    0.0000
   8269 C         835.5707  288.4003   53.8077 C.3    1378        0    0.0000
   8270 C         834.9523  287.3242   54.7071 C.3    1378        0    0.0000
   8271 H         836.6415  288.2058   53.6702 H      1378        0    0.0000
   8272 H         835.4880  289.3838   54.2866 H      1378        0    0.0000
   8273 H         835.6713  286.5118   54.8704 H      1378        0    0.0000
   8274 H         834.7229  287.7451   55.6938 H      1378        0    0.0000
   8275 C         833.6397  286.7223   54.0970 C.3    1379        0    0.0000
   8276 C         833.1088  285.5391   54.9139 C.3    1379        0    0.0000
   8277 H         832.8806  287.5124   54.0421 H      1379        0    0.0000
   8278 H         833.8413  286.4071   53.0656 H      1379        0    0.0000
   8279 H         832.8948  285.8575   55.9416 H      1379        0    0.0000
   8280 H         832.1612  285.1845   54.4900 H      1379        0    0.0000
   8281 C         834.1223  284.3439   54.9559 C.3    1380        0    0.0000
   8282 C         833.5609  283.1325   55.7085 C.3    1380        0    0.0000
   8283 H         834.3792  284.0618   53.9273 H      1380        0    0.0000
   8284 H         835.0510  284.6843   55.4305 H      1380        0    0.0000
   8285 H         832.4644  283.1684   55.7143 H      1380        0    0.0000
   8286 H         833.8431  282.2059   55.1936 H      1380        0    0.0000
   8287 C         834.0720  283.0637   57.1889 C.3    1381        0    0.0000
   8288 C         833.3185  282.0156   58.0154 C.3    1381        0    0.0000
   8289 H         835.1453  282.8369   57.1823 H      1381        0    0.0000
   8290 H         833.9621  284.0543   57.6473 H      1381        0    0.0000
   8291 H         833.9440  281.6736   58.8494 H      1381        0    0.0000
   8292 H         832.4193  282.4612   58.4581 H      1381        0    0.0000
   8293 C         832.8970  280.7732   57.1575 C.3    1382        0    0.0000
   8294 C         831.9474  279.8390   57.9154 C.3    1382        0    0.0000
   8295 H         832.4203  281.1261   56.2345 H      1382        0    0.0000
   8296 H         833.8004  280.2281   56.8568 H      1382        0    0.0000
   8297 H         831.4871  280.3722   58.7564 H      1382        0    0.0000
   8298 H         831.1287  279.5209   57.2581 H      1382        0    0.0000
   8299 C         832.6789  278.5657   58.4640 C.3    1383        0    0.0000
   8300 C         831.7131  277.5881   59.1427 C.3    1383        0    0.0000
   8301 H         833.1949  278.0688   57.6331 H      1383        0    0.0000
   8302 H         833.4545  278.8813   59.1729 H      1383        0    0.0000
   8303 H         831.3242  278.0265   60.0701 H      1383        0    0.0000
   8304 H         830.8476  277.4034   58.4944 H      1383        0    0.0000
   8305 C         832.3944  276.2168   59.4787 C.3    1384        0    0.0000
   8306 C         831.6376  275.4427   60.5638 C.3    1384        0    0.0000
   8307 H         832.4545  275.6177   58.5618 H      1384        0    0.0000
   8308 H         833.4263  276.4042   59.8007 H      1384        0    0.0000
   8309 H         832.1005  275.6178   61.5428 H      1384        0    0.0000
   8310 H         830.6049  275.8060   60.6339 H      1384        0    0.0000
   8311 C         831.6130  273.9002   60.2852 C.3    1385        0    0.0000
   8312 C         830.7061  273.1474   61.2649 C.3    1385        0    0.0000
   8313 H         831.2751  273.7323   59.2550 H      1385        0    0.0000
   8314 H         832.6376  273.5132   60.3477 H      1385        0    0.0000
   8315 H         830.6597  273.6825   62.2215 H      1385        0    0.0000
   8316 H         829.6812  273.1091   60.8754 H      1385        0    0.0000
   8317 C         831.2015  271.6837   61.5283 C.3    1386        0    0.0000
   8318 C         830.3345  270.9537   62.5600 C.3    1386        0    0.0000
   8319 H         831.2000  271.1337   60.5791 H      1386        0    0.0000
   8320 H         832.2434  271.7191   61.8702 H      1386        0    0.0000
   8321 H         830.2790  271.5389   63.4863 H      1386        0    0.0000
   8322 H         829.3074  270.8564   62.1868 H      1386        0    0.0000
   8323 C         830.8870  269.5259   62.8968 C.3    1387        0    0.0000
   8324 C         829.8040  268.6035   63.4672 C.3    1387        0    0.0000
   8325 H         831.3127  269.0875   61.9856 H      1387        0    0.0000
   8326 H         831.7117  269.6257   63.6133 H      1387        0    0.0000
   8327 H         828.8090  268.9975   63.2258 H      1387        0    0.0000
   8328 H         829.8714  267.6120   63.0027 H      1387        0    0.0000
   8329 C         829.9197  268.4419   65.0222 C.3    1388        0    0.0000
   8330 C         828.8659  267.4826   65.5865 C.3    1388        0    0.0000
   8331 H         830.9265  268.0805   65.2661 H      1388        0    0.0000
   8332 H         829.8178  269.4295   65.4889 H      1388        0    0.0000
   8333 H         828.5016  267.8507   66.5537 H      1388        0    0.0000
   8334 H         827.9974  267.4422   64.9175 H      1388        0    0.0000
   8335 C         829.4254  266.0306   65.7767 C.3    1389        0    0.0000
   8336 C         828.3162  265.0147   66.0713 C.3    1389        0    0.0000
   8337 H         829.9704  265.7401   64.8700 H      1389        0    0.0000
   8338 H         830.1561  266.0376   66.5950 H      1389        0    0.0000
   8339 H         827.8129  265.2696   67.0121 H      1389        0    0.0000
   8340 H         827.5522  265.0533   65.2849 H      1389        0    0.0000
   8341 C         828.8641  263.5494   66.1721 C.3    1390        0    0.0000
   8342 C         827.8551  262.5953   66.8210 C.3    1390        0    0.0000
   8343 H         829.1205  263.1977   65.1651 H      1390        0    0.0000
   8344 H         829.7970  263.5597   66.7492 H      1390        0    0.0000
   8345 H         827.6870  262.8803   67.8669 H      1390        0    0.0000
   8346 H         826.8854  262.6717   66.3138 H      1390        0    0.0000
   8347 C         828.3336  261.1033   66.7743 C.3    1391        0    0.0000
   8348 C         827.4203  260.1748   67.5823 C.3    1391        0    0.0000
   8349 H         828.3711  260.7766   65.7277 H      1391        0    0.0000
   8350 H         829.3599  261.0489   67.1583 H      1391        0    0.0000
   8351 H         827.5883  260.3232   68.6562 H      1391        0    0.0000
   8352 H         826.3687  260.4216   67.3908 H      1391        0    0.0000
   8353 C         827.6554  258.6636   67.2383 C.3    1392        0    0.0000
   8354 C         826.8172  257.7302   68.1189 C.3    1392        0    0.0000
   8355 H         827.4141  258.5000   66.1807 H      1392        0    0.0000
   8356 H         828.7219  258.4356   67.3571 H      1392        0    0.0000
   8357 H         825.9308  258.2592   68.4904 H      1392        0    0.0000
   8358 H         826.4527  256.8815   67.5271 H      1392        0    0.0000
   8359 C         827.6281  257.1814   69.3432 C.3    1393        0    0.0000
   8360 C         826.9163  256.0134   70.0348 C.3    1393        0    0.0000
   8361 H         828.6201  256.8657   68.9973 H      1393        0    0.0000
   8362 H         827.7886  257.9995   70.0563 H      1393        0    0.0000
   8363 H         826.1873  255.5598   69.3520 H      1393        0    0.0000
   8364 H         827.6403  255.2292   70.2890 H      1393        0    0.0000
   8365 C         826.1749  256.4596   71.3419 C.3    1394        0    0.0000
   8366 C         825.1918  255.3963   71.8439 C.3    1394        0    0.0000
   8367 H         826.9219  256.6764   72.1156 H      1394        0    0.0000
   8368 H         825.6442  257.3992   71.1442 H      1394        0    0.0000
   8369 H         824.9072  255.6073   72.8821 H      1394        0    0.0000
   8370 H         824.2689  255.4279   71.2516 H      1394        0    0.0000
   8371 C         825.7914  253.9498   71.7684 C.3    1395        0    0.0000
   8372 C         824.7038  252.8700   71.7577 C.3    1395        0    0.0000
   8373 H         826.4097  253.8700   70.8656 H      1395        0    0.0000
   8374 H         826.4619  253.8000   72.6236 H      1395        0    0.0000
   8375 H         823.9394  253.0986   72.5107 H      1395        0    0.0000
   8376 H         824.1951  252.8581   70.7859 H      1395        0    0.0000
   8377 C         825.2824  251.4412   72.0427 C.3    1396        0    0.0000
   8378 C         824.3802  250.6243   72.9743 C.3    1396        0    0.0000
   8379 H         825.4122  250.9155   71.0886 H      1396        0    0.0000
   8380 H         826.2817  251.5458   72.4833 H      1396        0    0.0000
   8381 H         823.9336  251.2779   73.7338 H      1396        0    0.0000
   8382 H         823.5493  250.1882   72.4060 H      1396        0    0.0000
   8383 C         825.1595  249.4709   73.6952 C.3    1397        0    0.0000
   8384 C         824.3614  248.1629   73.7285 C.3    1397        0    0.0000
   8385 H         826.1160  249.3150   73.1807 H      1397        0    0.0000
   8386 H         825.3998  249.7911   74.7166 H      1397        0    0.0000
   8387 H         823.3217  248.3639   74.0151 H      1397        0    0.0000
   8388 H         824.3314  247.7150   72.7275 H      1397        0    0.0000
   8389 C         824.9692  247.1214   74.7301 C.3    1398        0    0.0000
   8390 C         824.0085  245.9620   75.0166 C.3    1398        0    0.0000
   8391 H         825.9088  246.7372   74.3139 H      1398        0    0.0000
   8392 H         825.2258  247.6368   75.6639 H      1398        0    0.0000
   8393 H         823.2144  246.2913   75.6980 H      1398        0    0.0000
   8394 H         823.5162  245.6435   74.0894 H      1398        0    0.0000
   8395 C         824.7387  244.7281   75.6505 C.3    1399        0    0.0000
   8396 C         823.8192  243.5079   75.7711 C.3    1399        0    0.0000
   8397 H         825.6133  244.4808   75.0361 H      1399        0    0.0000
   8398 H         825.1188  245.0120   76.6398 H      1399        0    0.0000
   8399 H         823.2383  243.3820   74.8491 H      1399        0    0.0000
   8400 H         824.4177  242.5966   75.8934 H      1399        0    0.0000
   8401 C         822.8284  243.6277   76.9800 C.3    1400        0    0.0000
   8402 C         822.0906  242.3135   77.2588 C.3    1400        0    0.0000
   8403 H         823.3911  243.9390   77.8689 H      1400        0    0.0000
   8404 H         822.1070  244.4266   76.7681 H      1400        0    0.0000
   8405 H         821.4326  242.4289   78.1289 H      1400        0    0.0000
   8406 H         821.4467  242.0562   76.4087 H      1400        0    0.0000
   8407 C         823.0760  241.1237   77.5247 C.3    1401        0    0.0000
   8408 C         822.3705  239.7638   77.4783 C.3    1401        0    0.0000
   8409 H         823.8793  241.1564   76.7783 H      1401        0    0.0000
   8410 H         823.5495  241.2687   78.5037 H      1401        0    0.0000
   8411 H         821.2917  239.8944   77.6291 H      1401        0    0.0000
   8412 H         822.4974  239.3078   76.4887 H      1401        0    0.0000
   8413 C         822.9163  238.7740   78.5645 C.3    1402        0    0.0000
   8414 C         822.0577  237.5099   78.6824 C.3    1402        0    0.0000
   8415 H         823.9491  238.5050   78.3107 H      1402        0    0.0000
   8416 H         822.9544  239.2942   79.5297 H      1402        0    0.0000
   8417 H         821.0671  237.7637   79.0794 H      1402        0    0.0000
   8418 H         821.8965  237.0709   77.6900 H      1402        0    0.0000
   8419 C         822.7132  236.4310   79.6117 C.3    1403        0    0.0000
   8420 C         821.9123  235.1245   79.6398 C.3    1403        0    0.0000
   8421 H         823.7355  236.2381   79.2633 H      1403        0    0.0000
   8422 H         822.7982  236.8419   80.6254 H      1403        0    0.0000
   8423 H         820.8740  235.3135   79.3405 H      1403        0    0.0000
   8424 H         822.3255  234.4144   78.9128 H      1403        0    0.0000
   8425 C         821.9158  234.4558   81.0576 C.3    1404        0    0.0000
   8426 C         821.1062  233.1547   81.0881 C.3    1404        0    0.0000
   8427 H         822.9539  234.2599   81.3536 H      1404        0    0.0000
   8428 H         821.5097  235.1687   81.7859 H      1404        0    0.0000
   8429 H         821.2733  232.6299   82.0368 H      1404        0    0.0000
   8430 H         820.0334  233.3780   81.0363 H      1404        0    0.0000
   8431 C         821.4801  232.1945   79.9067 C.3    1405        0    0.0000
   8432 C         820.6952  230.8790   79.9568 C.3    1405        0    0.0000
   8433 H         821.2892  232.7105   78.9576 H      1405        0    0.0000
   8434 H         822.5576  231.9913   79.9437 H      1405        0    0.0000
   8435 H         819.6424  231.0594   79.7065 H      1405        0    0.0000
   8436 H         821.0828  230.1809   79.2045 H      1405        0    0.0000
   8437 C         820.7696  230.1959   81.3658 C.3    1406        0    0.0000
   8438 C         819.8008  229.0148   81.4906 C.3    1406        0    0.0000
   8439 H         821.7986  229.8586   81.5413 H      1406        0    0.0000
   8440 H         820.5487  230.9465   82.1348 H      1406        0    0.0000
   8441 H         818.7833  229.3808   81.6752 H      1406        0    0.0000
   8442 H         819.7678  228.4542   80.5482 H      1406        0    0.0000
   8443 C         820.2033  228.0359   82.6470 C.3    1407        0    0.0000
   8444 C         819.4237  226.7176   82.5899 C.3    1407        0    0.0000
   8445 H         821.2807  227.8388   82.5846 H      1407        0    0.0000
   8446 H         820.0295  228.5344   83.6088 H      1407        0    0.0000
   8447 H         818.3474  226.9134   82.6712 H      1407        0    0.0000
   8448 H         819.5827  226.2283   81.6210 H      1407        0    0.0000
   8449 C         819.8448  225.7283   83.7307 C.3    1408        0    0.0000
   8450 C         818.9430  224.4904   83.7885 C.3    1408        0    0.0000
   8451 H         820.8875  225.4270   83.5704 H      1408        0    0.0000
   8452 H         819.8148  226.2608   84.6895 H      1408        0    0.0000
   8453 H         818.0223  224.7212   84.3384 H      1408        0    0.0000
   8454 H         818.6401  224.1983   82.7754 H      1408        0    0.0000
   8455 C         819.6501  223.2718   84.4757 C.3    1409        0    0.0000
   8456 C         818.7681  222.0183   84.4853 C.3    1409        0    0.0000
   8457 H         820.5906  223.0659   83.9496 H      1409        0    0.0000
   8458 H         819.9179  223.5511   85.5022 H      1409        0    0.0000
   8459 H         817.7094  222.3036   84.5212 H      1409        0    0.0000
   8460 H         818.9102  221.4512   83.5570 H      1409        0    0.0000
   8461 C         819.0805  221.0814   85.7027 C.3    1410        0    0.0000
   8462 C         818.1581  219.8581   85.7460 C.3    1410        0    0.0000
   8463 H         820.1279  220.7608   85.6425 H      1410        0    0.0000
   8464 H         818.9811  221.6605   86.6292 H      1410        0    0.0000
   8465 H         818.2081  219.3841   86.7340 H      1410        0    0.0000
   8466 H         817.1161  220.1672   85.5971 H      1410        0    0.0000
   8467 C         818.5303  218.7946   84.6560 C.3    1411        0    0.0000
   8468 C         817.7344  217.4948   84.8169 C.3    1411        0    0.0000
   8469 H         818.3487  219.2266   83.6640 H      1411        0    0.0000
   8470 H         819.6058  218.5871   84.7172 H      1411        0    0.0000
   8471 H         816.6700  217.6795   84.6258 H      1411        0    0.0000
   8472 H         818.0645  216.7573   84.0748 H      1411        0    0.0000
   8473 C         817.8907  216.8757   86.2486 C.3    1412        0    0.0000
   8474 C         817.0188  215.6300   86.4412 C.3    1412        0    0.0000
   8475 H         818.9461  216.6252   86.4122 H      1412        0    0.0000
   8476 H         817.6285  217.6372   86.9937 H      1412        0    0.0000
   8477 H         815.9803  215.8515   86.1658 H      1412        0    0.0000
   8478 H         817.3572  214.8273   85.7743 H      1412        0    0.0000
   8479 C         817.0491  215.1061   87.9184 C.3    1413        0    0.0000
   8480 C         816.4305  213.7103   88.0525 C.3    1413        0    0.0000
   8481 H         818.0892  215.0918   88.2672 H      1413        0    0.0000
   8482 H         816.5124  215.8184   88.5572 H      1413        0    0.0000
   8483 H         817.1913  212.9422   87.8659 H      1413        0    0.0000
   8484 H         816.0709  213.5551   89.0773 H      1413        0    0.0000
   8485 C         815.2372  213.4913   87.0597 C.3    1414        0    0.0000
   8486 C         814.6182  212.0957   87.1943 C.3    1414        0    0.0000
   8487 H         814.4767  214.2597   87.2459 H      1414        0    0.0000
   8488 H         815.5970  213.6460   86.0349 H      1414        0    0.0000
   8489 H         814.0499  212.0251   88.1300 H      1414        0    0.0000
   8490 H         813.9057  211.9200   86.3789 H      1414        0    0.0000
   8491 C         815.7000  210.9614   87.1734 C.3    1415        0    0.0000
   8492 C         815.2385  209.7048   87.9197 C.3    1415        0    0.0000
   8493 H         815.9337  210.7148   86.1302 H      1415        0    0.0000
   8494 H         816.6248  211.3463   87.6208 H      1415        0    0.0000
   8495 H         814.1522  209.5872   87.8225 H      1415        0    0.0000
   8496 H         815.6933  208.8128   87.4716 H      1415        0    0.0000
   8497 C         815.6075  209.7492   89.4426 C.3    1416        0    0.0000
   8498 C         815.2988  208.4271   90.1540 C.3    1416        0    0.0000
   8499 H         816.6734  209.9895   89.5414 H      1416        0    0.0000
   8500 H         815.0545  210.5695   89.9168 H      1416        0    0.0000
   8501 H         816.1241  207.7194   90.0075 H      1416        0    0.0000
   8502 H         815.2139  208.5927   91.2352 H      1416        0    0.0000
   8503 C         813.9723  207.7703   89.6377 C.3    1417        0    0.0000
   8504 C         813.8655  206.2922   90.0287 C.3    1417        0    0.0000
   8505 H         813.1198  208.3292   90.0431 H      1417        0    0.0000
   8506 H         813.9273  207.8749   88.5465 H      1417        0    0.0000
   8507 H         814.5308  206.0778   90.8742 H      1417        0    0.0000
   8508 H         812.8461  206.0647   90.3644 H      1417        0    0.0000
   8509 C         814.2321  205.3357   88.8421 C.3    1418        0    0.0000
   8510 C         814.0186  203.8603   89.1980 C.3    1418        0    0.0000
   8511 H         813.6227  205.6042   87.9703 H      1418        0    0.0000
   8512 H         815.2783  205.5071   88.5599 H      1418        0    0.0000
   8513 H         813.2039  203.4418   88.5942 H      1418        0    0.0000
   8514 H         814.9188  203.2813   88.9574 H      1418        0    0.0000
   8515 C         813.6783  203.6584   90.7149 C.3    1419        0    0.0000
   8516 C         813.2753  202.2141   91.0325 C.3    1419        0    0.0000
   8517 H         814.5510  203.9458   91.3143 H      1419        0    0.0000
   8518 H         812.8676  204.3443   90.9898 H      1419        0    0.0000
   8519 H         812.5607  202.1974   91.8647 H      1419        0    0.0000
   8520 H         812.7651  201.7676   90.1701 H      1419        0    0.0000
   8521 C         814.5086  201.3220   91.4076 C.3    1420        0    0.0000
   8522 C         814.1626  199.8289   91.4215 C.3    1420        0    0.0000
   8523 H         815.3156  201.5144   90.6899 H      1420        0    0.0000
   8524 H         814.8821  201.6308   92.3918 H      1420        0    0.0000
   8525 H         813.3373  199.6276   90.7273 H      1420        0    0.0000
   8526 H         815.0197  199.2409   91.0710 H      1420        0    0.0000
   8527 C         813.7554  199.3268   92.8496 C.3    1421        0    0.0000
   8528 C         812.9504  198.0235   92.7996 C.3    1421        0    0.0000
   8529 H         814.6645  199.1846   93.4470 H      1421        0    0.0000
   8530 H         813.1711  200.1109   93.3469 H      1421        0    0.0000
   8531 H         813.5068  197.2589   92.2435 H      1421        0    0.0000
   8532 H         812.8051  197.6320   93.8140 H      1421        0    0.0000
   8533 C         811.5478  198.2170   92.1268 C.3    1422        0    0.0000
   8534 C         810.7397  196.9154   92.0835 C.3    1422        0    0.0000
   8535 H         810.9935  198.9856   92.6796 H      1422        0    0.0000
   8536 H         811.6934  198.6034   91.1105 H      1422        0    0.0000
   8537 H         809.7932  197.0421   92.6235 H      1422        0    0.0000
   8538 H         810.4802  196.6680   91.0467 H      1422        0    0.0000
   8539 C         811.5214  195.7097   92.7102 C.3    1423        0    0.0000
   8540 C         810.6568  194.4485   92.8151 C.3    1423        0    0.0000
   8541 H         812.4091  195.5073   92.0982 H      1423        0    0.0000
   8542 H         811.8836  196.0012   93.7039 H      1423        0    0.0000
   8543 H         809.7997  194.6338   93.4744 H      1423        0    0.0000
   8544 H         810.2472  194.1903   91.8308 H      1423        0    0.0000
   8545 C         811.4614  193.2207   93.3654 C.3    1424        0    0.0000
   8546 C         810.5894  191.9674   93.4988 C.3    1424        0    0.0000
   8547 H         812.3059  193.0217   92.6940 H      1424        0    0.0000
   8548 H         811.8896  193.4865   94.3399 H      1424        0    0.0000
   8549 H         809.8163  192.1264   94.2607 H      1424        0    0.0000
   8550 H         810.0658  191.7712   92.5549 H      1424        0    0.0000
   8551 C         811.4265  190.6996   93.8854 C.3    1425        0    0.0000
   8552 C         810.5378  189.5163   94.2845 C.3    1425        0    0.0000
   8553 H         812.0620  190.4227   93.0351 H      1425        0    0.0000
   8554 H         812.1005  190.9591   94.7111 H      1425        0    0.0000
   8555 H         810.0574  189.7158   95.2503 H      1425        0    0.0000
   8556 H         809.7315  189.3876   93.5520 H      1425        0    0.0000
   8557 C         811.3444  188.1761   94.3887 C.3    1426        0    0.0000
   8558 C         810.4457  186.9822   94.7291 C.3    1426        0    0.0000
   8559 H         811.8606  187.9991   93.4369 H      1426        0    0.0000
   8560 H         812.1233  188.2906   95.1528 H      1426        0    0.0000
   8561 H         809.4478  187.1274   94.2971 H      1426        0    0.0000
   8562 H         810.8521  186.0661   94.2828 H      1426        0    0.0000
   8563 C         810.3007  186.7696   96.2755 C.3    1427        0    0.0000
   8564 C         809.5471  185.4793   96.6164 C.3    1427        0    0.0000
   8565 H         811.3012  186.7509   96.7252 H      1427        0    0.0000
   8566 H         809.7789  187.6343   96.7040 H      1427        0    0.0000
   8567 H         810.2364  184.7448   97.0512 H      1427        0    0.0000
   8568 H         808.7811  185.6804   97.3756 H      1427        0    0.0000
   8569 C         808.8584  184.8438   95.3597 C.3    1428        0    0.0000
   8570 C         808.2516  183.4694   95.6627 C.3    1428        0    0.0000
   8571 H         808.0798  185.5276   94.9995 H      1428        0    0.0000
   8572 H         809.5996  184.7587   94.5554 H      1428        0    0.0000
   8573 H         808.0955  183.3570   96.7428 H      1428        0    0.0000
   8574 H         807.2650  183.3815   95.1910 H      1428        0    0.0000
   8575 C         809.1592  182.2950   95.1584 C.3    1429        0    0.0000
   8576 C         808.7922  180.9566   95.8090 C.3    1429        0    0.0000
   8577 H         809.0676  182.2206   94.0677 H      1429        0    0.0000
   8578 H         810.2069  182.5416   95.3705 H      1429        0    0.0000
   8579 H         809.0234  180.1302   95.1255 H      1429        0    0.0000
   8580 H         809.3969  180.7984   96.7105 H      1429        0    0.0000
   8581 C         807.2756  180.8812   96.1982 C.3    1430        0    0.0000
   8582 C         806.9383  179.6044   96.9761 C.3    1430        0    0.0000
   8583 H         807.0195  181.7647   96.7961 H      1430        0    0.0000
   8584 H         806.6726  180.9346   95.2832 H      1430        0    0.0000
   8585 H         807.8493  179.1806   97.4165 H      1430        0    0.0000
   8586 H         806.2648  179.8387   97.8098 H      1430        0    0.0000
   8587 C         806.2622  178.5181   96.0704 C.3    1431        0    0.0000
   8588 C         806.5841  177.0931   96.5340 C.3    1431        0    0.0000
   8589 H         805.1771  178.6791   96.0752 H      1431        0    0.0000
   8590 H         806.5974  178.6617   95.0357 H      1431        0    0.0000
   8591 H         806.4465  176.3878   95.7052 H      1431        0    0.0000
   8592 H         807.6367  177.0242   96.8350 H      1431        0    0.0000
   8593 C         805.6844  176.6420   97.7360 C.3    1432        0    0.0000
   8594 C         806.1622  175.3246   98.3567 C.3    1432        0    0.0000
   8595 H         805.6823  177.4357   98.4935 H      1432        0    0.0000
   8596 H         804.6503  176.5391   97.3846 H      1432        0    0.0000
   8597 H         807.2119  175.1438   98.0939 H      1432        0    0.0000
   8598 H         806.1177  175.3864   99.4511 H      1432        0    0.0000
   8599 C         805.3051  174.1000   97.8845 C.3    1433        0    0.0000
   8600 C         805.8643  172.7678   98.3959 C.3    1433        0    0.0000
   8601 H         804.2740  174.2342   98.2343 H      1433        0    0.0000
   8602 H         805.2678  174.0962   96.7881 H      1433        0    0.0000
   8603 H         806.7600  172.4922   97.8256 H      1433        0    0.0000
   8604 H         806.1759  172.8678   99.4430 H      1433        0    0.0000
   8605 C         804.8192  171.6043   98.2886 C.3    1434        0    0.0000
   8606 C         805.4131  170.2507   98.6939 C.3    1434        0    0.0000
   8607 H         803.9579  171.8428   98.9249 H      1434        0    0.0000
   8608 H         804.4461  171.5580   97.2579 H      1434        0    0.0000
   8609 H         806.1685  169.9374   97.9627 H      1434        0    0.0000
   8610 H         805.9266  170.3392   99.6593 H      1434        0    0.0000
   8611 C         804.3208  169.1315   98.8032 C.3    1435        0    0.0000
   8612 C         804.9296  167.7492   99.0630 C.3    1435        0    0.0000
   8613 H         803.6252  169.3939   99.6099 H      1435        0    0.0000
   8614 H         803.7358  169.1165   97.8752 H      1435        0    0.0000
   8615 H         805.5328  167.4360   98.2019 H      1435        0    0.0000
   8616 H         805.6082  167.7928   99.9240 H      1435        0    0.0000
   8617 C         803.8357  166.6601   99.3366 C.3    1436        0    0.0000
   8618 C         804.4185  165.2427   99.3524 C.3    1436        0    0.0000
   8619 H         803.3516  166.8785  100.2965 H      1436        0    0.0000
   8620 H         803.0582  166.7386   98.5665 H      1436        0    0.0000
   8621 H         804.8135  164.9873   98.3613 H      1436        0    0.0000
   8622 H         805.2627  165.1908  100.0510 H      1436        0    0.0000
   8623 C         803.3547  164.1675   99.7647 C.3    1437        0    0.0000
   8624 C         803.8649  162.7369   99.5591 C.3    1437        0    0.0000
   8625 H         803.0842  164.3229  100.8165 H      1437        0    0.0000
   8626 H         802.4423  164.3295   99.1775 H      1437        0    0.0000
   8627 H         803.9415  162.5153   98.4875 H      1437        0    0.0000
   8628 H         804.8748  162.6343   99.9750 H      1437        0    0.0000
   8629 C         802.9315  161.6711  100.2301 C.3    1438        0    0.0000
   8630 C         803.1771  160.2594   99.6864 C.3    1438        0    0.0000
   8631 H         803.0954  161.6903  101.3147 H      1438        0    0.0000
   8632 H         801.8866  161.9616  100.0642 H      1438        0    0.0000
   8633 H         802.8475  160.1959   98.6419 H      1438        0    0.0000
   8634 H         804.2510  160.0357   99.6920 H      1438        0    0.0000
   8635 C         802.4282  159.1631  100.5200 C.3    1439        0    0.0000
   8636 C         802.4324  157.7987   99.8216 C.3    1439        0    0.0000
   8637 H         802.9031  159.0825  101.5056 H      1439        0    0.0000
   8638 H         801.3967  159.4938  100.6933 H      1439        0    0.0000
   8639 H         801.8296  157.8430   98.9060 H      1439        0    0.0000
   8640 H         803.4525  157.5362   99.5149 H      1439        0    0.0000
   8641 C         801.8720  156.6592  100.7408 C.3    1440        0    0.0000
   8642 C         801.7477  155.3234   99.9996 C.3    1440        0    0.0000
   8643 H         802.5336  156.5476  101.6088 H      1440        0    0.0000
   8644 H         800.8929  156.9668  101.1284 H      1440        0    0.0000
   8645 H         801.0836  155.4342   99.1335 H      1440        0    0.0000
   8646 H         802.7263  155.0174   99.6093 H      1440        0    0.0000
   8647 C         801.1916  154.1828  100.9201 C.3    1441        0    0.0000
   8648 C         801.0424  152.8535  100.1719 C.3    1441        0    0.0000
   8649 H         801.8663  154.0588  101.7763 H      1441        0    0.0000
   8650 H         800.2220  154.4969  101.3259 H      1441        0    0.0000
   8651 H         800.3788  152.9808   99.3075 H      1441        0    0.0000
   8652 H         802.0145  152.5322   99.7781 H      1441        0    0.0000
   8653 C         800.4675  151.7179  101.0870 C.3    1442        0    0.0000
   8654 C         800.2850  150.3980  100.3296 C.3    1442        0    0.0000
   8655 H         801.1447  151.5727  101.9379 H      1442        0    0.0000
   8656 H         799.5075  152.0497  101.5014 H      1442        0    0.0000
   8657 H         799.5555  150.5266   99.5204 H      1442        0    0.0000
   8658 H         801.2299  150.1013   99.8577 H      1442        0    0.0000
   8659 C         799.8016  149.2375  101.2661 C.3    1443        0    0.0000
   8660 C         799.5311  147.9419  100.4932 C.3    1443        0    0.0000
   8661 H         800.5634  149.0640  102.0362 H      1443        0    0.0000
   8662 H         798.8928  149.5603  101.7890 H      1443        0    0.0000
   8663 H         798.7343  148.1028   99.7565 H      1443        0    0.0000
   8664 H         800.4252  147.6458   99.9306 H      1443        0    0.0000
   8665 C         799.1151  146.7623  101.4382 C.3    1444        0    0.0000
   8666 C         798.8342  145.4696  100.6643 C.3    1444        0    0.0000
   8667 H         799.9155  146.5963  102.1699 H      1444        0    0.0000
   8668 H         798.2257  147.0614  102.0066 H      1444        0    0.0000
   8669 H         798.1765  145.6773   99.8111 H      1444        0    0.0000
   8670 H         799.7678  145.0675  100.2518 H      1444        0    0.0000
   8671 C         798.1650  144.3728  101.5626 C.3    1445        0    0.0000
   8672 C         797.9628  143.0516  100.8126 C.3    1445        0    0.0000
   8673 H         798.7919  144.2104  102.4483 H      1445        0    0.0000
   8674 H         797.2010  144.7516  101.9242 H      1445        0    0.0000
   8675 H         798.9165  142.5156  100.7309 H      1445        0    0.0000
   8676 H         797.2824  142.4001  101.3750 H      1445        0    0.0000
   8677 C         797.3802  143.2686   99.3736 C.3    1446        0    0.0000
   8678 C         797.1685  141.9467   98.6272 C.3    1446        0    0.0000
   8679 H         796.4302  143.8111   99.4547 H      1446        0    0.0000
   8680 H         798.0643  143.9140   98.8088 H      1446        0    0.0000
   8681 H         796.1121  141.8344   98.3533 H      1446        0    0.0000
   8682 H         797.7386  141.9486   97.6898 H      1446        0    0.0000
   8683 C         797.6038  140.7061   99.4809 C.3    1447        0    0.0000
   8684 C         796.8717  139.4266   99.0614 C.3    1447        0    0.0000
   8685 H         798.6877  140.5699   99.3794 H      1447        0    0.0000
   8686 H         797.4109  140.9200  100.5394 H      1447        0    0.0000
   8687 H         795.7867  139.5795   99.1144 H      1447        0    0.0000
   8688 H         797.1052  139.1848   98.0171 H      1447        0    0.0000
   8689 C         797.2539  138.2012   99.9613 C.3    1448        0    0.0000
   8690 C         796.9642  136.8625   99.2734 C.3    1448        0    0.0000
   8691 H         798.3183  138.2695  100.2183 H      1448        0    0.0000
   8692 H         796.6972  138.2677  100.9043 H      1448        0    0.0000
   8693 H         796.2336  137.0042   98.4674 H      1448        0    0.0000
   8694 H         797.8777  136.4744   98.8060 H      1448        0    0.0000
   8695 C         796.4121  135.7883  100.2727 C.3    1449        0    0.0000
   8696 C         795.9834  134.4999   99.5621 C.3    1449        0    0.0000
   8697 H         797.1866  135.5672  101.0176 H      1449        0    0.0000
   8698 H         795.5628  136.2170  100.8191 H      1449        0    0.0000
   8699 H         795.0444  134.1284   99.9908 H      1449        0    0.0000
   8700 H         795.7872  134.7024   98.5018 H      1449        0    0.0000
   8701 C         797.0682  133.3733   99.6689 C.3    1450        0    0.0000
   8702 C         796.6756  132.1131   98.8899 C.3    1450        0    0.0000
   8703 H         798.0225  133.7646   99.2950 H      1450        0    0.0000
   8704 H         797.2211  133.1288  100.7274 H      1450        0    0.0000
   8705 H         796.0855  132.3858   98.0062 H      1450        0    0.0000
   8706 H         797.5745  131.6022   98.5232 H      1450        0    0.0000
   8707 C         795.8447  131.1101   99.7623 C.3    1451        0    0.0000
   8708 C         795.5005  129.8251   99.0012 C.3    1451        0    0.0000
   8709 H         796.4174  130.8696  100.6667 H      1451        0    0.0000
   8710 H         794.9255  131.6081  100.0948 H      1451        0    0.0000
   8711 H         796.1837  129.6963   98.1525 H      1451        0    0.0000
   8712 H         795.6396  128.9533   99.6526 H      1451        0    0.0000
   8713 C         794.0266  129.8272   98.4676 C.3    1452        0    0.0000
   8714 C         793.7197  128.5990   97.6037 C.3    1452        0    0.0000
   8715 H         793.3409  129.8661   99.3231 H      1452        0    0.0000
   8716 H         793.8611  130.7447   97.8894 H      1452        0    0.0000
   8717 H         792.7015  128.6672   97.2011 H      1452        0    0.0000
   8718 H         794.3977  128.5666   96.7418 H      1452        0    0.0000
   8719 C         793.8574  127.2591   98.4056 C.3    1453        0    0.0000
   8720 C         794.2398  126.0796   97.5047 C.3    1453        0    0.0000
   8721 H         794.6118  127.3928   99.1908 H      1453        0    0.0000
   8722 H         792.9074  127.0518   98.9136 H      1453        0    0.0000
   8723 H         793.5581  126.0249   96.6470 H      1453        0    0.0000
   8724 H         795.2475  126.2288   97.0973 H      1453        0    0.0000
   8725 C         794.2012  124.7114   98.2688 C.3    1454        0    0.0000
   8726 C         794.2290  123.5122   97.3147 C.3    1454        0    0.0000
   8727 H         795.0556  124.6656   98.9555 H      1454        0    0.0000
   8728 H         793.2967  124.6780   98.8887 H      1454        0    0.0000
   8729 H         793.4490  123.6210   96.5510 H      1454        0    0.0000
   8730 H         795.1878  123.4769   96.7828 H      1454        0    0.0000
   8731 C         794.0163  122.1518   98.0640 C.3    1455        0    0.0000
   8732 C         793.7484  120.9924   97.0980 C.3    1455        0    0.0000
   8733 H         794.9059  121.9388   98.6696 H      1455        0    0.0000
   8734 H         793.1779  122.2604   98.7631 H      1455        0    0.0000
   8735 H         792.8018  121.1556   96.5679 H      1455        0    0.0000
   8736 H         794.5342  120.9502   96.3338 H      1455        0    0.0000
   8737 C         793.6837  119.6093   97.8333 C.3    1456        0    0.0000
   8738 C         793.4424  118.4469   96.8639 C.3    1456        0    0.0000
   8739 H         794.6226  119.4550   98.3794 H      1456        0    0.0000
   8740 H         792.8846  119.6450   98.5841 H      1456        0    0.0000
   8741 H         792.5988  118.6782   96.2017 H      1456        0    0.0000
   8742 H         794.3192  118.3062   96.2197 H      1456        0    0.0000
   8743 C         793.1437  117.1019   97.6117 C.3    1457        0    0.0000
   8744 C         792.9386  115.9319   96.6432 C.3    1457        0    0.0000
   8745 H         793.9752  116.8843   98.2937 H      1457        0    0.0000
   8746 H         792.2512  117.2349   98.2356 H      1457        0    0.0000
   8747 H         792.2981  116.2426   95.8084 H      1457        0    0.0000
   8748 H         793.8996  115.6310   96.2080 H      1457        0    0.0000
   8749 C         792.2891  114.6885   97.3427 C.3    1458        0    0.0000
   8750 C         792.2029  113.4760   96.4092 C.3    1458        0    0.0000
   8751 H         792.8779  114.4362   98.2335 H      1458        0    0.0000
   8752 H         791.2874  114.9641   97.6950 H      1458        0    0.0000
   8753 H         793.1764  112.9731   96.3550 H      1458        0    0.0000
   8754 H         791.4915  112.7430   96.8092 H      1458        0    0.0000
   8755 C         791.7579  113.8730   94.9594 C.3    1459        0    0.0000
   8756 C         791.6926  112.6635   94.0202 C.3    1459        0    0.0000
   8757 H         790.7772  114.3618   95.0119 H      1459        0    0.0000
   8758 H         792.4604  114.6177   94.5653 H      1459        0    0.0000
   8759 H         790.6870  112.5747   93.5907 H      1459        0    0.0000
   8760 H         792.3831  112.8026   93.1793 H      1459        0    0.0000
   8761 C         792.0500  111.3237   94.7513 C.3    1460        0    0.0000
   8762 C         791.5568  110.0930   93.9824 C.3    1460        0    0.0000
   8763 H         793.1378  111.2728   94.8846 H      1460        0    0.0000
   8764 H         791.6100  111.3408   95.7560 H      1460        0    0.0000
   8765 H         790.4766  110.1677   93.8060 H      1460        0    0.0000
   8766 H         792.0347  110.0492   92.9959 H      1460        0    0.0000
   8767 C         791.8527  108.7568   94.7469 C.3    1461        0    0.0000
   8768 C         791.9132  107.5496   93.8046 C.3    1461        0    0.0000
   8769 H         792.8022  108.8609   95.2864 H      1461        0    0.0000
   8770 H         791.0748  108.6035   95.5051 H      1461        0    0.0000
   8771 H         791.3948  107.7790   92.8654 H      1461        0    0.0000
   8772 H         792.9554  107.3284   93.5431 H      1461        0    0.0000
   8773 C         791.2684  106.2687   94.4378 C.3    1462        0    0.0000
   8774 C         791.0560  105.1549   93.4065 C.3    1462        0    0.0000
   8775 H         791.9146  105.9117   95.2493 H      1462        0    0.0000
   8776 H         790.3106  106.5446   94.8961 H      1462        0    0.0000
   8777 H         790.0930  105.2910   92.8989 H      1462        0    0.0000
   8778 H         791.8309  105.2070   92.6318 H      1462        0    0.0000
   8779 C         791.0870  103.7290   94.0572 C.3    1463        0    0.0000
   8780 C         791.1609  102.6135   93.0087 C.3    1463        0    0.0000
   8781 H         791.9487  103.6675   94.7333 H      1463        0    0.0000
   8782 H         790.1906  103.6036   94.6772 H      1463        0    0.0000
   8783 H         790.6984  102.9469   92.0715 H      1463        0    0.0000
   8784 H         792.2085  102.3827   92.7783 H      1463        0    0.0000
   8785 C         790.4475  101.3017   93.4856 C.3    1464        0    0.0000
   8786 C         790.3981  100.2348   92.3864 C.3    1464        0    0.0000
   8787 H         790.9753  100.9117   94.3648 H      1464        0    0.0000
   8788 H         789.4308  101.5512   93.8137 H      1464        0    0.0000
   8789 H         789.4567  100.3127   91.8287 H      1464        0    0.0000
   8790 H         791.2068  100.4011   91.6640 H      1464        0    0.0000
   8791 C         790.5256   98.7823   92.9620 C.3    1465        0    0.0000
   8792 C         790.4948   97.7164   91.8611 C.3    1465        0    0.0000
   8793 H         791.4606   98.7082   93.5312 H      1465        0    0.0000
   8794 H         789.7089   98.6112   93.6742 H      1465        0    0.0000
   8795 H         789.9738   98.1039   90.9768 H      1465        0    0.0000
   8796 H         791.5166   97.4738   91.5437 H      1465        0    0.0000
   8797 C         789.7850   96.3993   92.3290 C.3    1466        0    0.0000
   8798 C         789.8647   95.2902   91.2741 C.3    1466        0    0.0000
   8799 H         790.2470   96.0620   93.2651 H      1466        0    0.0000
   8800 H         788.7364   96.6252   92.5588 H      1466        0    0.0000
   8801 H         789.3079   95.5847   90.3759 H      1466        0    0.0000
   8802 H         790.9062   95.1402   90.9640 H      1466        0    0.0000
   8803 C         789.2927   93.9285   91.7994 C.3    1467        0    0.0000
   8804 C         789.2467   92.8568   90.7047 C.3    1467        0    0.0000
   8805 H         789.9122   93.5843   92.6369 H      1467        0    0.0000
   8806 H         788.2863   94.0991   92.2014 H      1467        0    0.0000
   8807 H         789.1458   91.8620   91.1561 H      1467        0    0.0000
   8808 H         788.3647   93.0055   90.0695 H      1467        0    0.0000
   8809 C         790.5283   92.8742   89.8020 C.3    1468        0    0.0000
   8810 C         790.3905   91.9594   88.5800 C.3    1468        0    0.0000
   8811 H         790.7202   93.9053   89.4803 H      1468        0    0.0000
   8812 H         791.3908   92.5671   90.4064 H      1468        0    0.0000
   8813 H         789.7094   92.4101   87.8476 H      1468        0    0.0000
   8814 H         791.3614   91.8493   88.0812 H      1468        0    0.0000
   8815 C         789.8536   90.5366   88.9605 C.3    1469        0    0.0000
   8816 C         789.2695   89.7942   87.7535 C.3    1469        0    0.0000
   8817 H         790.6738   89.9548   89.3991 H      1469        0    0.0000
   8818 H         789.0908   90.6437   89.7415 H      1469        0    0.0000
   8819 H         788.7603   90.5015   87.0873 H      1469        0    0.0000
   8820 H         790.0757   89.3347   87.1683 H      1469        0    0.0000
   8821 C         788.2536   88.6781   88.1773 C.3    1470        0    0.0000
   8822 C         788.7281   87.2774   87.7746 C.3    1470        0    0.0000
   8823 H         788.1066   88.7276   89.2633 H      1470        0    0.0000
   8824 H         787.2808   88.8924   87.7176 H      1470        0    0.0000
   8825 H         789.8168   87.2734   87.6400 H      1470        0    0.0000
   8826 H         788.5070   86.5607   88.5752 H      1470        0    0.0000
   8827 C         788.0533   86.7795   86.4501 C.3    1471        0    0.0000
   8828 C         788.5961   85.4196   85.9973 C.3    1471        0    0.0000
   8829 H         786.9692   86.7187   86.6067 H      1471        0    0.0000
   8830 H         788.2168   87.5296   85.6664 H      1471        0    0.0000
   8831 H         788.7574   85.4213   84.9122 H      1471        0    0.0000
   8832 H         789.5724   85.2310   86.4607 H      1471        0    0.0000
   8833 C         787.6276   84.2420   86.3621 C.3    1472        0    0.0000
   8834 C         788.3272   82.8791   86.3160 C.3    1472        0    0.0000
   8835 H         787.2161   84.4199   87.3633 H      1472        0    0.0000
   8836 H         786.7795   84.2532   85.6663 H      1472        0    0.0000
   8837 H         789.2356   82.9430   85.7043 H      1472        0    0.0000
   8838 H         788.6461   82.5857   87.3239 H      1472        0    0.0000
   8839 C         787.4026   81.7561   85.7318 C.3    1473        0    0.0000
   8840 C         788.1722   80.4630   85.4406 C.3    1473        0    0.0000
   8841 H         786.5921   81.5590   86.4444 H      1473        0    0.0000
   8842 H         786.9313   82.1282   84.8136 H      1473        0    0.0000
   8843 H         788.9082   80.6343   84.6453 H      1473        0    0.0000
   8844 H         788.7354   80.1522   86.3293 H      1473        0    0.0000
   8845 C         787.2242   79.2919   85.0080 C.3    1474        0    0.0000
   8846 C         788.0005   78.0839   84.4719 C.3    1474        0    0.0000
   8847 H         786.6137   78.9945   85.8696 H      1474        0    0.0000
   8848 H         786.5303   79.6627   84.2433 H      1474        0    0.0000
   8849 H         788.5122   78.3498   83.5387 H      1474        0    0.0000
   8850 H         788.7797   77.7905   85.1860 H      1474        0    0.0000
   8851 C         787.0701   76.8509   84.2044 C.3    1475        0    0.0000
   8852 C         787.8464   75.6427   83.6691 C.3    1475        0    0.0000
   8853 H         786.5577   76.5855   85.1376 H      1475        0    0.0000
   8854 H         786.2910   77.1442   83.4899 H      1475        0    0.0000
   8855 H         788.2822   75.8792   82.6905 H      1475        0    0.0000
   8856 H         788.6833   75.4069   84.3380 H      1475        0    0.0000
   8857 C         786.9410   74.3711   83.5250 C.3    1476        0    0.0000
   8858 C         787.6451   73.2395   82.7681 C.3    1476        0    0.0000
   8859 H         786.6491   74.0296   84.5258 H      1476        0    0.0000
   8860 H         786.0163   74.6524   83.0059 H      1476        0    0.0000
   8861 H         787.9813   73.5958   81.7866 H      1476        0    0.0000
   8862 H         788.5432   72.9241   83.3135 H      1476        0    0.0000
   8863 C         786.7155   71.9941   82.5623 C.3    1477        0    0.0000
   8864 C         787.4464   70.8291   81.8859 C.3    1477        0    0.0000
   8865 H         786.3264   71.6782   83.5382 H      1477        0    0.0000
   8866 H         785.8492   72.2951   81.9602 H      1477        0    0.0000
   8867 H         787.8610   71.1534   80.9233 H      1477        0    0.0000
   8868 H         788.2951   70.5086   82.5026 H      1477        0    0.0000
   8869 C         786.5059   69.5989   81.6421 C.3    1478        0    0.0000
   8870 C         787.2324   68.4404   80.9498 C.3    1478        0    0.0000
   8871 H         786.1011   69.2667   82.6062 H      1478        0    0.0000
   8872 H         785.6505   69.9223   81.0361 H      1478        0    0.0000
   8873 H         787.6348   68.7719   79.9846 H      1478        0    0.0000
   8874 H         788.0892   68.1187   81.5546 H      1478        0    0.0000
   8875 C         786.2927   67.2089   80.7094 C.3    1479        0    0.0000
   8876 C         787.0015   66.0750   79.9604 C.3    1479        0    0.0000
   8877 H         785.9272   66.8484   81.6789 H      1479        0    0.0000
   8878 H         785.4127   67.5404   80.1444 H      1479        0    0.0000
   8879 H         787.3188   66.4201   78.9686 H      1479        0    0.0000
   8880 H         787.9115   65.7804   80.4976 H      1479        0    0.0000
   8881 C         786.0863   64.8140   79.7876 C.3    1480        0    0.0000
   8882 C         786.7664   63.7104   78.9698 C.3    1480        0    0.0000
   8883 H         785.8164   64.4342   80.7807 H      1480        0    0.0000
   8884 H         785.1511   65.1196   79.3023 H      1480        0    0.0000
   8885 H         786.9914   64.0750   77.9599 H      1480        0    0.0000
   8886 H         787.7256   63.4395   79.4281 H      1480        0    0.0000
   8887 C         785.8793   62.4229   78.8561 C.3    1481        0    0.0000
   8888 C         786.5410   61.3350   78.0030 C.3    1481        0    0.0000
   8889 H         785.6801   62.0405   79.8649 H      1481        0    0.0000
   8890 H         784.9083   62.6992   78.4265 H      1481        0    0.0000
   8891 H         786.6979   61.7019   76.9811 H      1481        0    0.0000
   8892 H         787.5319   61.0918   78.4060 H      1481        0    0.0000
   8893 C         785.6841   60.0237   77.9432 C.3    1482        0    0.0000
   8894 C         786.3039   58.9664   77.0228 C.3    1482        0    0.0000
   8895 H         785.5792   59.6231   78.9591 H      1482        0    0.0000
   8896 H         784.6738   60.2769   77.5985 H      1482        0    0.0000
   8897 H         786.3676   59.3511   75.9974 H      1482        0    0.0000
   8898 H         787.3303   58.7457   77.3410 H      1482        0    0.0000
   8899 C         785.4805   57.6324   77.0115 C.3    1483        0    0.0000
   8900 C         786.0371   56.6147   76.0097 C.3    1483        0    0.0000
   8901 H         785.4843   57.2059   78.0223 H      1483        0    0.0000
   8902 H         784.4354   57.8639   76.7712 H      1483        0    0.0000
   8903 H         785.9288   56.9960   74.9867 H      1483        0    0.0000
   8904 H         787.1110   56.4685   76.1794 H      1483        0    0.0000
   8905 C         785.3160   55.2264   76.1104 C.3    1484        0    0.0000
   8906 C         785.7922   54.2451   75.0336 C.3    1484        0    0.0000
   8907 H         785.4952   54.8064   77.1079 H      1484        0    0.0000
   8908 H         784.2335   55.3831   76.0244 H      1484        0    0.0000
   8909 H         785.5526   54.6353   74.0367 H      1484        0    0.0000
   8910 H         786.8831   54.1395   75.0769 H      1484        0    0.0000
   8911 C         785.1407   52.8280   75.1915 C.3    1485        0    0.0000
   8912 C         785.5676   51.8652   74.0779 C.3    1485        0    0.0000
   8913 H         785.4189   52.4180   76.1703 H      1485        0    0.0000
   8914 H         784.0493   52.9389   75.1950 H      1485        0    0.0000
   8915 H         785.2515   52.2547   73.1023 H      1485        0    0.0000
   8916 H         786.6613   51.7874   74.0467 H      1485        0    0.0000
   8917 C         784.9642   50.4310   74.2690 C.3    1486        0    0.0000
   8918 C         785.3135   49.4944   73.1071 C.3    1486        0    0.0000
   8919 H         785.3358   50.0139   75.2131 H      1486        0    0.0000
   8920 H         783.8751   50.5160   74.3692 H      1486        0    0.0000
   8921 H         784.8998   49.8871   72.1700 H      1486        0    0.0000
   8922 H         786.4017   49.4474   72.9759 H      1486        0    0.0000
   8923 C         784.7684   48.0417   73.3306 C.3    1487        0    0.0000
   8924 C         785.0745   47.1179   72.1465 C.3    1487        0    0.0000
   8925 H         785.2104   47.6354   74.2487 H      1487        0    0.0000
   8926 H         783.6853   48.0923   73.4980 H      1487        0    0.0000
   8927 H         784.6119   47.5115   71.2329 H      1487        0    0.0000
   8928 H         786.1556   47.0863   71.9637 H      1487        0    0.0000
   8929 C         784.5593   45.6565   72.3844 C.3    1488        0    0.0000
   8930 C         784.8198   44.7454   71.1797 C.3    1488        0    0.0000
   8931 H         785.0502   45.2494   73.2770 H      1488        0    0.0000
   8932 H         783.4851   45.6917   72.6041 H      1488        0    0.0000
   8933 H         784.3184   45.1459   70.2899 H      1488        0    0.0000
   8934 H         785.8926   44.7201   70.9523 H      1488        0    0.0000
   8935 C         784.3204   43.2797   71.4244 C.3    1489        0    0.0000
   8936 C         784.5543   42.3759   70.2088 C.3    1489        0    0.0000
   8937 H         784.8378   42.8717   72.3015 H      1489        0    0.0000
   8938 H         783.2523   43.3070   71.6730 H      1489        0    0.0000
   8939 H         784.5214   42.9697   69.2868 H      1489        0    0.0000
   8940 H         785.5544   41.9282   70.2598 H      1489        0    0.0000
   8941 C         783.4912   41.2281   70.1087 C.3    1490        0    0.0000
   8942 C         783.8936   40.1506   69.0957 C.3    1490        0    0.0000
   8943 H         783.3595   40.7806   71.1016 H      1490        0    0.0000
   8944 H         782.5244   41.6649   69.8292 H      1490        0    0.0000
   8945 H         784.4557   39.3535   69.5978 H      1490        0    0.0000
   8946 H         782.9980   39.6831   68.6681 H      1490        0    0.0000
   8947 C         784.7677   40.7281   67.9296 C.3    1491        0    0.0000
   8948 C         785.1521   39.6548   66.9053 C.3    1491        0    0.0000
   8949 H         784.2118   41.5358   67.4375 H      1491        0    0.0000
   8950 H         785.6710   41.1818   68.3561 H      1491        0    0.0000
   8951 H         784.7610   39.9221   65.9157 H      1491        0    0.0000
   8952 H         786.2435   39.6007   66.8086 H      1491        0    0.0000
   8953 C         784.6086   38.2376   67.2974 C.3    1492        0    0.0000
   8954 C         784.4364   37.3240   66.0789 C.3    1492        0    0.0000
   8955 H         785.3001   37.7801   68.0158 H      1492        0    0.0000
   8956 H         783.6495   38.3578   67.8160 H      1492        0    0.0000
   8957 H         784.0950   37.9087   65.2156 H      1492        0    0.0000
   8958 H         785.4016   36.8837   65.7993 H      1492        0    0.0000
   8959 C         783.4113   36.1679   66.3433 C.3    1493        0    0.0000
   8960 C         783.9777   34.7931   65.9715 C.3    1493        0    0.0000
   8961 H         783.1263   36.1834   67.4026 H      1493        0    0.0000
   8962 H         782.4982   36.3665   65.7685 H      1493        0    0.0000
   8963 H         784.0660   34.7048   64.8816 H      1493        0    0.0000
   8964 H         784.9897   34.6803   66.3797 H      1493        0    0.0000
   8965 C         783.0848   33.6192   66.5029 C.3    1494        0    0.0000
   8966 C         782.9351   32.4922   65.4751 C.3    1494        0    0.0000
   8967 H         783.5276   33.2287   67.4275 H      1494        0    0.0000
   8968 H         782.0984   34.0182   66.7700 H      1494        0    0.0000
   8969 H         782.0033   31.9414   65.6539 H      1494        0    0.0000
   8970 H         782.8638   32.9121   64.4640 H      1494        0    0.0000
   8971 C         784.1346   31.4839   65.5201 C.3    1495        0    0.0000
   8972 C         784.2549   30.6664   64.2293 C.3    1495        0    0.0000
   8973 H         785.0609   32.0440   65.6984 H      1495        0    0.0000
   8974 H         784.0013   30.8140   66.3786 H      1495        0    0.0000
   8975 H         783.7591   31.1918   63.4037 H      1495        0    0.0000
   8976 H         785.3099   30.5614   63.9475 H      1495        0    0.0000
   8977 C         783.6249   29.2378   64.3699 C.3    1496        0    0.0000
   8978 C         783.7189   28.4311   63.0701 C.3    1496        0    0.0000
   8979 H         784.1353   28.7045   65.1814 H      1496        0    0.0000
   8980 H         782.5757   29.3424   64.6727 H      1496        0    0.0000
   8981 H         782.9187   28.7313   62.3823 H      1496        0    0.0000
   8982 H         784.6675   28.6449   62.5624 H      1496        0    0.0000
   8983 C         783.6168   26.8869   63.3206 C.3    1497        0    0.0000
   8984 C         782.8678   26.1642   62.1955 C.3    1497        0    0.0000
   8985 H         784.6295   26.4774   63.4220 H      1497        0    0.0000
   8986 H         783.1108   26.7169   64.2791 H      1497        0    0.0000
   8987 H         781.8175   26.0175   62.4765 H      1497        0    0.0000
   8988 H         782.8680   26.7798   61.2875 H      1497        0    0.0000
   8989 C         783.5008   24.7697   61.8607 C.3    1498        0    0.0000
   8990 C         783.0564   24.2437   60.4914 C.3    1498        0    0.0000
   8991 H         784.5936   24.8607   61.8921 H      1498        0    0.0000
   8992 H         783.2214   24.0567   62.6462 H      1498        0    0.0000
   8993 H         781.9621   24.2663   60.4169 H      1498        0    0.0000
   8994 H         783.4398   24.8947   59.6959 H      1498        0    0.0000
   8995 C         783.5508   22.7796   60.2283 C.3    1499        0    0.0000
   8996 C         782.5060   21.9381   59.4871 C.3    1499        0    0.0000
   8997 H         784.4816   22.8194   59.6490 H      1499        0    0.0000
   8998 H         783.7976   22.3117   61.1894 H      1499        0    0.0000
   8999 H         781.5421   21.9907   60.0082 H      1499        0    0.0000
   9000 H         782.3424   22.3427   58.4805 H      1499        0    0.0000
   9001 C         782.9326   20.4347   59.3641 C.3    1500        0    0.0000
   9002 C         782.2679   19.7380   58.1715 C.3    1500        0    0.0000
   9003 H         784.0243   20.3835   59.2690 H      1500        0    0.0000
   9004 H         782.6729   19.9160   60.2952 H      1500        0    0.0000
   9005 H         781.1783   19.7341   58.2976 H      1500        0    0.0000
   9006 H         782.4763   20.2924   57.2481 H      1500        0    0.0000
   9007 C         782.7616   18.2605   57.9960 C.3    1501        0    0.0000
   9008 C         781.8815   17.4654   57.0253 C.3    1501        0    0.0000
   9009 H         783.7986   18.2742   57.6384 H      1501        0    0.0000
   9010 H         782.7737   17.7726   58.9786 H      1501        0    0.0000
   9011 H         780.8473   17.4396   57.3903 H      1501        0    0.0000
   9012 H         781.8580   17.9609   56.0468 H      1501        0    0.0000
   9013 C         782.3868   15.9938   56.8344 C.3    1502        0    0.0000
   9014 C         781.6506   15.2691   55.7022 C.3    1502        0    0.0000
   9015 H         783.4645   16.0136   56.6302 H      1502        0    0.0000
   9016 H         782.2549   15.4495   57.7778 H      1502        0    0.0000
   9017 H         780.5735   15.2456   55.9085 H      1502        0    0.0000
   9018 H         781.7790   15.8156   54.7597 H      1502        0    0.0000
   9019 C         782.1600   13.7994   55.5075 C.3    1503        0    0.0000
   9020 C         781.2985   13.0128   54.5134 C.3    1503        0    0.0000
   9021 H         783.2009   13.8287   55.1620 H      1503        0    0.0000
   9022 H         782.1656   13.2950   56.4817 H      1503        0    0.0000
   9023 H         780.2637   12.9579   54.8738 H      1503        0    0.0000
   9024 H         781.2686   13.5328   53.5479 H      1503        0    0.0000
   9025 C         781.8325   11.5565   54.2868 C.3    1504        0    0.0000
   9026 C         781.0239   10.7996   53.2273 C.3    1504        0    0.0000
   9027 H         782.8871   11.6090   53.9887 H      1504        0    0.0000
   9028 H         781.8015   11.0160   55.2409 H      1504        0    0.0000
   9029 H         779.9709   10.7407   53.5289 H      1504        0    0.0000
   9030 H         781.0491   11.3440   52.2751 H      1504        0    0.0000
   9031 C         781.5646    9.3469   52.9931 C.3    1505        0    0.0000
   9032 C         780.7073    8.5620   51.9940 C.3    1505        0    0.0000
   9033 H         782.5994    9.4084   52.6339 H      1505        0    0.0000
   9034 H         781.5959    8.8218   53.9558 H      1505        0    0.0000
   9035 H         779.6789    8.4773   52.3661 H      1505        0    0.0000
   9036 H         780.6539    9.1007   51.0398 H      1505        0    0.0000
   9037 C         781.2697    7.1226   51.7309 C.3    1506        0    0.0000
   9038 C         780.4237    6.3449   50.7166 C.3    1506        0    0.0000
   9039 H         782.3032    7.2067   51.3727 H      1506        0    0.0000
   9040 H         781.3094    6.5790   52.6829 H      1506        0    0.0000
   9041 H         779.3920    6.2543   51.0782 H      1506        0    0.0000
   9042 H         780.3779    6.8922   49.7669 H      1506        0    0.0000
   9043 C         780.9921    4.9093   50.4455 C.3    1507        0    0.0000
   9044 C         780.1287    4.1202   49.4551 C.3    1507        0    0.0000
   9045 H         782.0159    5.0009   50.0622 H      1507        0    0.0000
   9046 H         781.0595    4.3700   51.3985 H      1507        0    0.0000
   9047 H         779.1099    4.0118   49.8474 H      1507        0    0.0000
   9048 H         780.0451    4.6689   48.5087 H      1507        0    0.0000
   9049 C         780.7120    2.6948   49.1629 C.3    1508        0    0.0000
   9050 C         779.8481    1.9054   48.1730 C.3    1508        0    0.0000
   9051 H         781.7306    2.8032   48.7700 H      1508        0    0.0000
   9052 H         780.7961    2.1463   50.1092 H      1508        0    0.0000
   9053 H         778.8303    1.7950   48.5669 H      1508        0    0.0000
   9054 H         779.7623    2.4549   47.2274 H      1508        0    0.0000
   9055 C         780.4332    0.4812   47.8784 C.3    1509        0    0.0000
   9056 C         779.5660   -0.3107   46.8934 C.3    1509        0    0.0000
   9057 H         781.4495    0.5918   47.4801 H      1509        0    0.0000
   9058 H         780.5236   -0.0667   48.8246 H      1509        0    0.0000
   9059 H         778.5501   -0.4219   47.2920 H      1509        0    0.0000
   9060 H         779.4752    0.2375   45.9475 H      1509        0    0.0000
   9061 C         780.1517   -1.7345   46.5979 C.3    1510        0    0.0000
   9062 C         779.2846   -2.5263   45.6130 C.3    1510        0    0.0000
   9063 H         781.1678   -1.6232   46.1993 H      1510        0    0.0000
   9064 H         780.2428   -2.2826   47.5438 H      1510        0    0.0000
   9065 H         778.2694   -2.6400   46.0128 H      1510        0    0.0000
   9066 H         779.1914   -1.9769   44.6680 H      1510        0    0.0000
   9067 C         779.8723   -3.9487   45.3146 C.3    1511        0    0.0000
   9068 C         779.0067   -4.7394   44.3274 C.3    1511        0    0.0000
   9069 H         780.8884   -3.8351   44.9167 H      1511        0    0.0000
   9070 H         779.9637   -4.4989   46.2593 H      1511        0    0.0000
   9071 H         777.9821   -4.8241   44.7097 H      1511        0    0.0000
   9072 H         778.9432   -4.2053   43.3712 H      1511        0    0.0000
   9073 C         779.5688   -6.1792   44.0655 C.3    1512        0    0.0000
   9074 C         778.7136   -6.9634   43.0641 C.3    1512        0    0.0000
   9075 H         780.5984   -6.0951   43.6960 H      1512        0    0.0000
   9076 H         779.6196   -6.7180   45.0198 H      1512        0    0.0000
   9077 H         778.8651   -6.5703   42.0512 H      1512        0    0.0000
   9078 H         779.0268   -8.0146   43.0442 H      1512        0    0.0000
   9079 C         777.1857   -6.8978   43.4083 C.3    1513        0    0.0000
   9080 C         776.3246   -7.6256   42.3699 C.3    1513        0    0.0000
   9081 H         777.0278   -7.3360   44.4016 H      1513        0    0.0000
   9082 H         776.8834   -5.8455   43.4765 H      1513        0    0.0000
   9083 H         775.6818   -8.3638   42.8651 H      1513        0    0.0000
   9084 H         775.6580   -6.9133   41.8682 H      1513        0    0.0000
   9085 C         777.1909   -8.3559   41.2865 C.3    1514        0    0.0000
   9086 C         776.4859   -9.5909   40.7148 C.3    1514        0    0.0000
   9087 H         777.4208   -7.6474   40.4810 H      1514        0    0.0000
   9088 H         778.1495   -8.6442   41.7355 H      1514        0    0.0000
   9089 H         776.0385  -10.1780   41.5264 H      1514        0    0.0000
   9090 H         775.6631   -9.2837   40.0574 H      1514        0    0.0000
   9091 C         777.4631  -10.5111   39.9049 C.3    1515        0    0.0000
   9092 C         776.7515  -11.7297   39.3067 C.3    1515        0    0.0000
   9093 H         777.9280   -9.9181   39.1076 H      1515        0    0.0000
   9094 H         778.2735  -10.8371   40.5686 H      1515        0    0.0000
   9095 H         776.8096  -12.5774   40.0007 H      1515        0    0.0000
   9096 H         775.6859  -11.5110   39.1650 H      1515        0    0.0000
   9097 C         777.3663  -12.1603   37.9305 C.3    1516        0    0.0000
   9098 C         776.8434  -13.5225   37.4614 C.3    1516        0    0.0000
   9099 H         777.1347  -11.3909   37.1835 H      1516        0    0.0000
   9100 H         778.4590  -12.1890   38.0247 H      1516        0    0.0000
   9101 H         777.6665  -14.1203   37.0508 H      1516        0    0.0000
   9102 H         776.4403  -14.0842   38.3131 H      1516        0    0.0000
   9103 C         775.7250  -13.3862   36.3713 C.3    1517        0    0.0000
   9104 C         775.0596  -14.7291   36.0506 C.3    1517        0    0.0000
   9105 H         774.9736  -12.6686   36.7234 H      1517        0    0.0000
   9106 H         776.1671  -12.9590   35.4626 H      1517        0    0.0000
   9107 H         774.6767  -15.1883   36.9704 H      1517        0    0.0000
   9108 H         774.1955  -14.5733   35.3930 H      1517        0    0.0000
   9109 C         776.0469  -15.7312   35.3588 C.3    1518        0    0.0000
   9110 C         775.3770  -17.0683   35.0232 C.3    1518        0    0.0000
   9111 H         776.4391  -15.2673   34.4453 H      1518        0    0.0000
   9112 H         776.9053  -15.8963   36.0217 H      1518        0    0.0000
   9113 H         776.0514  -17.8985   35.2672 H      1518        0    0.0000
   9114 H         774.4773  -17.2026   35.6364 H      1518        0    0.0000
   9115 C         774.9775  -17.1695   33.5108 C.3    1519        0    0.0000
   9116 C         774.6849  -18.6118   33.0825 C.3    1519        0    0.0000
   9117 H         774.0974  -16.5389   33.3345 H      1519        0    0.0000
   9118 H         775.7900  -16.7538   32.9018 H      1519        0    0.0000
   9119 H         775.1238  -18.8077   32.0964 H      1519        0    0.0000
   9120 H         775.1549  -19.3144   33.7817 H      1519        0    0.0000
   9121 C         773.1478  -18.9128   33.0203 C.3    1520        0    0.0000
   9122 C         772.8530  -20.4144   32.9346 C.3    1520        0    0.0000
   9123 H         772.6674  -18.4853   33.9091 H      1520        0    0.0000
   9124 H         772.7210  -18.3956   32.1520 H      1520        0    0.0000
   9125 H         773.7333  -20.9891   33.2481 H      1520        0    0.0000
   9126 H         772.0421  -20.6786   33.6247 H      1520        0    0.0000
   9127 C         772.4489  -20.8588   31.4866 C.3    1521        0    0.0000
   9128 C         773.1561  -22.1487   31.0562 C.3    1521        0    0.0000
   9129 H         771.3610  -20.9960   31.4495 H      1521        0    0.0000
   9130 H         772.6882  -20.0475   30.7880 H      1521        0    0.0000
   9131 H         774.1926  -21.9317   30.7696 H      1521        0    0.0000
   9132 H         773.2025  -22.8510   31.8977 H      1521        0    0.0000
   9133 C         772.4351  -22.8486   29.8531 C.3    1522        0    0.0000
   9134 C         772.4810  -24.3769   29.9580 C.3    1522        0    0.0000
   9135 H         771.3938  -22.5051   29.8167 H      1522        0    0.0000
   9136 H         772.9077  -22.5212   28.9187 H      1522        0    0.0000
   9137 H         773.4929  -24.7389   29.7378 H      1522        0    0.0000
   9138 H         772.2504  -24.6907   30.9836 H      1522        0    0.0000
   9139 C         771.4721  -25.0702   28.9786 C.3    1523        0    0.0000
   9140 C         772.0623  -26.3277   28.3310 C.3    1523        0    0.0000
   9141 H         770.5601  -25.3251   29.5326 H      1523        0    0.0000
   9142 H         771.1796  -24.3502   28.2043 H      1523        0    0.0000
   9143 H         773.0388  -26.0989   27.8865 H      1523        0    0.0000
   9144 H         772.2357  -27.0974   29.0934 H      1523        0    0.0000
   9145 C         771.1273  -26.9185   27.2201 C.3    1524        0    0.0000
   9146 C         771.3964  -28.4057   26.9650 C.3    1524        0    0.0000
   9147 H         770.0829  -26.7716   27.5219 H      1524        0    0.0000
   9148 H         771.2716  -26.3461   26.2954 H      1524        0    0.0000
   9149 H         772.4161  -28.5437   26.5846 H      1524        0    0.0000
   9150 H         771.3325  -28.9663   27.9058 H      1524        0    0.0000
   9151 C         770.3861  -29.0246   25.9384 C.3    1525        0    0.0000
   9152 C         770.8712  -30.3688   25.3844 C.3    1525        0    0.0000
   9153 H         769.4138  -29.1495   26.4307 H      1525        0    0.0000
   9154 H         770.2347  -28.3122   25.1180 H      1525        0    0.0000
   9155 H         771.8642  -30.2532   24.9327 H      1525        0    0.0000
   9156 H         770.9786  -31.0950   26.1997 H      1525        0    0.0000
   9157 C         769.8926  -30.9565   24.3099 C.3    1526        0    0.0000
   9158 C         770.2189  -32.4131   23.9620 C.3    1526        0    0.0000
   9159 H         768.8656  -30.8811   24.6881 H      1526        0    0.0000
   9160 H         769.9427  -30.3341   23.4079 H      1526        0    0.0000
   9161 H         771.2363  -32.4845   23.5578 H      1526        0    0.0000
   9162 H         770.1962  -33.0305   24.8686 H      1526        0    0.0000
   9163 C         769.2166  -33.0132   22.9167 C.3    1527        0    0.0000
   9164 C         769.6755  -34.3766   22.3881 C.3    1527        0    0.0000
   9165 H         768.2291  -33.1047   23.3858 H      1527        0    0.0000
   9166 H         769.1063  -32.3053   22.0859 H      1527        0    0.0000
   9167 H         770.6615  -34.2843   21.9158 H      1527        0    0.0000
   9168 H         769.7895  -35.0834   23.2193 H      1527        0    0.0000
   9169 C         768.6707  -34.9789   21.3465 C.3    1528        0    0.0000
   9170 C         769.0834  -36.3810   20.8851 C.3    1528        0    0.0000
   9171 H         767.6710  -35.0102   21.7970 H      1528        0    0.0000
   9172 H         768.6071  -34.3029   20.4848 H      1528        0    0.0000
   9173 H         770.0967  -36.3559   20.4653 H      1528        0    0.0000
   9174 H         769.1144  -37.0652   21.7421 H      1528        0    0.0000
   9175 C         768.1046  -36.9641   19.8083 C.3    1529        0    0.0000
   9176 C         767.6384  -38.3826   20.1545 C.3    1529        0    0.0000
   9177 H         767.2396  -36.2955   19.7177 H      1529        0    0.0000
   9178 H         768.6086  -36.9612   18.8339 H      1529        0    0.0000
   9179 H         768.4634  -39.0931   20.0197 H      1529        0    0.0000
   9180 H         767.3467  -38.4353   21.2107 H      1529        0    0.0000
   9181 C         766.4268  -38.8417   19.2721 C.3    1530        0    0.0000
   9182 C         766.8704  -39.6751   18.0647 C.3    1530        0    0.0000
   9183 H         765.7349  -39.4214   19.8955 H      1530        0    0.0000
   9184 H         765.8782  -37.9535   18.9349 H      1530        0    0.0000
   9185 H         767.6393  -39.1360   17.4976 H      1530        0    0.0000
   9186 H         767.3279  -40.6132   18.4028 H      1530        0    0.0000
   9187 C         765.6777  -40.0120   17.1048 C.3    1531        0    0.0000
   9188 C         766.0364  -39.7872   15.6317 C.3    1531        0    0.0000
   9189 H         765.3793  -41.0555   17.2643 H      1531        0    0.0000
   9190 H         764.8157  -39.3921   17.3808 H      1531        0    0.0000
   9191 H         766.6125  -38.8602   15.5221 H      1531        0    0.0000
   9192 H         766.6780  -40.6013   15.2724 H      1531        0    0.0000
   9193 C         764.7660  -39.7038   14.7170 C.3    1532        0    0.0000
   9194 C         764.3961  -41.0624   14.1113 C.3    1532        0    0.0000
   9195 H         763.9283  -39.3156   15.3096 H      1532        0    0.0000
   9196 H         764.9521  -38.9744   13.9190 H      1532        0    0.0000
   9197 H         765.0931  -41.3161   13.3030 H      1532        0    0.0000
   9198 H         764.4916  -41.8503   14.8686 H      1532        0    0.0000
   9199 C         762.9351  -41.0817   13.5434 C.3    1533        0    0.0000
   9200 C         762.6049  -42.3999   12.8346 C.3    1533        0    0.0000
   9201 H         762.2326  -40.9121   14.3688 H      1533        0    0.0000
   9202 H         762.8145  -40.2408   12.8492 H      1533        0    0.0000
   9203 H         763.4298  -42.6870   12.1708 H      1533        0    0.0000
   9204 H         762.4976  -43.2062   13.5707 H      1533        0    0.0000
   9205 C         761.2866  -42.3069   11.9913 C.3    1534        0    0.0000
   9206 C         761.0322  -43.5754   11.1695 C.3    1534        0    0.0000
   9207 H         760.4447  -42.1234   12.6703 H      1534        0    0.0000
   9208 H         761.3520  -41.4356   11.3278 H      1534        0    0.0000
   9209 H         761.9050  -43.7996   10.5439 H      1534        0    0.0000
   9210 H         760.8939  -44.4348   11.8372 H      1534        0    0.0000
   9211 C         759.7708  -43.4432   10.2482 C.3    1535        0    0.0000
   9212 C         759.4954  -44.7243    9.4530 C.3    1535        0    0.0000
   9213 H         758.9028  -43.1931   10.8707 H      1535        0    0.0000
   9214 H         759.9203  -42.5999    9.5627 H      1535        0    0.0000
   9215 H         760.3713  -44.9860    8.8464 H      1535        0    0.0000
   9216 H         759.3251  -45.5634   10.1389 H      1535        0    0.0000
   9217 C         758.2515  -44.5822    8.5096 C.3    1536        0    0.0000
   9218 C         757.9803  -45.8610    7.7095 C.3    1536        0    0.0000
   9219 H         757.3747  -44.3254    9.1169 H      1536        0    0.0000
   9220 H         758.4197  -43.7400    7.8271 H      1536        0    0.0000
   9221 H         758.8477  -46.1039    7.0832 H      1536        0    0.0000
   9222 H         757.8370  -46.7082    8.3915 H      1536        0    0.0000
   9223 C         756.7156  -45.7310    6.7924 C.3    1537        0    0.0000
   9224 C         756.4256  -47.0207    6.0167 C.3    1537        0    0.0000
   9225 H         755.8528  -45.4648    7.4156 H      1537        0    0.0000
   9226 H         756.8690  -44.8986    6.0945 H      1537        0    0.0000
   9227 H         757.2925  -47.2931    5.4022 H      1537        0    0.0000
   9228 H         756.2610  -47.8507    6.7149 H      1537        0    0.0000
   9229 C         755.1702  -46.8855    5.0875 C.3    1538        0    0.0000
   9230 C         754.8674  -48.1819    4.3280 C.3    1538        0    0.0000
   9231 H         754.3065  -46.5977    5.6997 H      1538        0    0.0000
   9232 H         755.3413  -46.0656    4.3789 H      1538        0    0.0000
   9233 H         755.7333  -48.4729    3.7205 H      1538        0    0.0000
   9234 H         754.6903  -49.0004    5.0366 H      1538        0    0.0000
   9235 C         753.6171  -48.0441    3.3924 C.3    1539        0    0.0000
   9236 C         753.2711  -49.3605    2.6878 C.3    1539        0    0.0000
   9237 H         752.7637  -47.7021    3.9908 H      1539        0    0.0000
   9238 H         753.8156  -47.2610    2.6502 H      1539        0    0.0000
   9239 H         754.1221  -49.6990    2.0839 H      1539        0    0.0000
   9240 H         753.0794  -50.1453    3.4300 H      1539        0    0.0000
   9241 C         752.0150  -49.2252    1.7597 C.3    1540        0    0.0000
   9242 C         751.6402  -50.5531    1.0923 C.3    1540        0    0.0000
   9243 H         751.1729  -48.8532    2.3563 H      1540        0    0.0000
   9244 H         752.2200  -48.4650    0.9958 H      1540        0    0.0000
   9245 H         752.4814  -50.9237    0.4935 H      1540        0    0.0000
   9246 H         751.4377  -51.3140    1.8561 H      1540        0    0.0000
   9247 C         750.3818  -50.4186    0.1671 C.3    1541        0    0.0000
   9248 C         749.8802  -51.7781   -0.3324 C.3    1541        0    0.0000
   9249 H         749.5873  -49.9057    0.7231 H      1541        0    0.0000
   9250 H         750.6362  -49.7755   -0.6845 H      1541        0    0.0000
   9251 H         750.6635  -52.2763   -0.9171 H      1541        0    0.0000
   9252 H         749.6580  -52.4330    0.5191 H      1541        0    0.0000
   9253 C         748.5938  -51.6475   -1.2188 C.3    1542        0    0.0000
   9254 C         748.9013  -51.7902   -2.7134 C.3    1542        0    0.0000
   9255 H         747.8715  -52.4128   -0.9086 H      1542        0    0.0000
   9256 H         748.1261  -50.6748   -1.0221 H      1542        0    0.0000
   9257 H         749.8622  -51.3152   -2.9468 H      1542        0    0.0000
   9258 H         749.0016  -52.8503   -2.9774 H      1542        0    0.0000
   9259 C         747.7890  -51.1486   -3.6127 C.3    1543        0    0.0000
   9260 C         746.6562  -52.1324   -3.9260 C.3    1543        0    0.0000
   9261 H         747.3884  -50.2639   -3.1025 H      1543        0    0.0000
   9262 H         748.2479  -50.7944   -4.5440 H      1543        0    0.0000
   9263 H         747.0571  -53.0181   -4.4343 H      1543        0    0.0000
   9264 H         746.1960  -52.4851   -2.9947 H      1543        0    0.0000
   9265 C         745.5454  -51.4918   -4.8277 C.3    1544        0    0.0000
   9266 C         744.2317  -51.2785   -4.0676 C.3    1544        0    0.0000
   9267 H         745.9144  -50.5349   -5.2171 H      1544        0    0.0000
   9268 H         745.3766  -52.1411   -5.6958 H      1544        0    0.0000
   9269 H         743.5889  -52.1614   -4.1723 H      1544        0    0.0000
   9270 H         744.4324  -51.1602   -2.9956 H      1544        0    0.0000
   9271 C         743.4482  -50.0198   -4.5770 C.3    1545        0    0.0000
   9272 C         742.3392  -50.3880   -5.5688 C.3    1545        0    0.0000
   9273 H         743.0213  -49.4955   -3.7130 H      1545        0    0.0000
   9274 H         744.1581  -49.3275   -5.0464 H      1545        0    0.0000
   9275 H         742.7178  -51.1060   -6.3068 H      1545        0    0.0000
   9276 H         741.5133  -50.8828   -5.0428 H      1545        0    0.0000
   9277 C         741.7781  -49.1346   -6.3248 C.3    1546        0    0.0000
   9278 C         740.6179  -49.4918   -7.2604 C.3    1546        0    0.0000
   9279 H         741.4506  -48.3931   -5.5856 H      1546        0    0.0000
   9280 H         742.5928  -48.6719   -6.8956 H      1546        0    0.0000
   9281 H         741.0060  -49.8979   -8.2027 H      1546        0    0.0000
   9282 H         739.9995  -50.2778   -6.8096 H      1546        0    0.0000
   9283 C         739.7094  -48.2548   -7.5794 C.3    1547        0    0.0000
   9284 C         738.5361  -48.6168   -8.4966 C.3    1547        0    0.0000
   9285 H         739.3349  -47.8385   -6.6360 H      1547        0    0.0000
   9286 H         740.3246  -47.4751   -8.0455 H      1547        0    0.0000
   9287 H         737.7874  -49.1936   -7.9396 H      1547        0    0.0000
   9288 H         738.0359  -47.7049   -8.8452 H      1547        0    0.0000
   9289 C         738.9919  -49.4512   -9.7430 C.3    1548        0    0.0000
   9290 C         737.8118  -49.8603  -10.6312 C.3    1548        0    0.0000
   9291 H         739.7106  -48.8580  -10.3220 H      1548        0    0.0000
   9292 H         739.5276  -50.3430   -9.3949 H      1548        0    0.0000
   9293 H         737.9839  -49.5276  -11.6623 H      1548        0    0.0000
   9294 H         737.7263  -50.9536  -10.6630 H      1548        0    0.0000
   9295 C         736.4534  -49.2617  -10.1273 C.3    1549        0    0.0000
   9296 C         735.3537  -49.3398  -11.1920 C.3    1549        0    0.0000
   9297 H         736.1421  -49.8020   -9.2247 H      1549        0    0.0000
   9298 H         736.6155  -48.2183   -9.8297 H      1549        0    0.0000
   9299 H         735.7903  -49.2303  -12.1925 H      1549        0    0.0000
   9300 H         734.8727  -50.3254  -11.1644 H      1549        0    0.0000
   9301 C         734.2573  -48.2367  -10.9957 C.3    1550        0    0.0000
   9302 C         733.5234  -47.9084  -12.3006 C.3    1550        0    0.0000
   9303 H         733.5421  -48.5799  -10.2380 H      1550        0    0.0000
   9304 H         734.7325  -47.3333  -10.5939 H      1550        0    0.0000
   9305 H         733.4523  -46.8212  -12.4290 H      1550        0    0.0000
   9306 H         734.0914  -48.2904  -13.1579 H      1550        0    0.0000
   9307 C         732.0794  -48.5173  -12.3394 C.3    1551        0    0.0000
   9308 C         731.2999  -48.0845  -13.5862 C.3    1551        0    0.0000
   9309 H         732.1558  -49.6111  -12.3045 H      1551        0    0.0000
   9310 H         731.5415  -48.2099  -11.4341 H      1551        0    0.0000
   9311 H         731.9942  -47.7463  -14.3654 H      1551        0    0.0000
   9312 H         730.7514  -48.9387  -14.0022 H      1551        0    0.0000
   9313 C         730.2830  -46.9314  -13.2805 C.3    1552        0    0.0000
   9314 C         729.6862  -46.3295  -14.5575 C.3    1552        0    0.0000
   9315 H         729.4833  -47.3254  -12.6411 H      1552        0    0.0000
   9316 H         730.7947  -46.1529  -12.7012 H      1552        0    0.0000
   9317 H         729.6702  -45.2349  -14.4854 H      1552        0    0.0000
   9318 H         730.3155  -46.5791  -15.4207 H      1552        0    0.0000
   9319 C         728.2291  -46.8394  -14.8301 C.3    1553        0    0.0000
   9320 C         727.7159  -46.4200  -16.2120 C.3    1553        0    0.0000
   9321 H         728.2144  -47.9326  -14.7393 H      1553        0    0.0000
   9322 H         727.5659  -46.4494  -14.0481 H      1553        0    0.0000
   9323 H         728.2963  -45.5673  -16.5859 H      1553        0    0.0000
   9324 H         727.8582  -47.2370  -16.9301 H      1553        0    0.0000
   9325 C         726.1985  -46.0269  -16.1881 C.3    1554        0    0.0000
   9326 C         725.8020  -45.1677  -17.3937 C.3    1554        0    0.0000
   9327 H         725.5961  -46.9435  -16.1650 H      1554        0    0.0000
   9328 H         725.9875  -45.4878  -15.2562 H      1554        0    0.0000
   9329 H         726.6061  -44.4605  -17.6323 H      1554        0    0.0000
   9330 H         725.6667  -45.8013  -18.2790 H      1554        0    0.0000
   9331 C         724.4802  -44.3636  -17.1412 C.3    1555        0    0.0000
   9332 C         723.5736  -44.3334  -18.3766 C.3    1555        0    0.0000
   9333 H         723.9479  -44.8151  -16.2949 H      1555        0    0.0000
   9334 H         724.7403  -43.3411  -16.8404 H      1555        0    0.0000
   9335 H         724.1589  -44.5528  -19.2781 H      1555        0    0.0000
   9336 H         722.8077  -45.1151  -18.3003 H      1555        0    0.0000
   9337 C         722.8646  -42.9473  -18.5594 C.3    1556        0    0.0000
   9338 C         722.2504  -42.7885  -19.9547 C.3    1556        0    0.0000
   9339 H         722.0871  -42.8438  -17.7923 H      1556        0    0.0000
   9340 H         723.5952  -42.1495  -18.3771 H      1556        0    0.0000
   9341 H         722.5645  -41.8351  -20.3975 H      1556        0    0.0000
   9342 H         722.6169  -43.5804  -20.6194 H      1556        0    0.0000
   9343 C         720.6840  -42.8396  -19.9237 C.3    1557        0    0.0000
   9344 C         720.0688  -42.6449  -21.3139 C.3    1557        0    0.0000
   9345 H         720.3698  -43.8037  -19.5050 H      1557        0    0.0000
   9346 H         720.3183  -42.0646  -19.2387 H      1557        0    0.0000
   9347 H         720.7458  -42.0569  -21.9459 H      1557        0    0.0000
   9348 H         719.9408  -43.6161  -21.8080 H      1557        0    0.0000
   9349 C         718.6791  -41.9220  -21.2528 C.3    1558        0    0.0000
   9350 C         718.3284  -41.2251  -22.5721 C.3    1558        0    0.0000
   9351 H         717.9075  -42.6599  -21.0005 H      1558        0    0.0000
   9352 H         718.6963  -41.1916  -20.4345 H      1558        0    0.0000
   9353 H         719.2288  -40.7799  -23.0132 H      1558        0    0.0000
   9354 H         717.9523  -41.9582  -23.2964 H      1558        0    0.0000
   9355 C         717.2505  -40.1028  -22.3828 C.3    1559        0    0.0000
   9356 C         716.2233  -40.0863  -23.5202 C.3    1559        0    0.0000
   9357 H         716.7449  -40.2567  -21.4215 H      1559        0    0.0000
   9358 H         717.7579  -39.1322  -22.3201 H      1559        0    0.0000
   9359 H         716.7321  -40.1782  -24.4879 H      1559        0    0.0000
   9360 H         715.5524  -40.9500  -23.4337 H      1559        0    0.0000
   9361 C         715.3624  -38.7762  -23.5244 C.3    1560        0    0.0000
   9362 C         714.5737  -38.6036  -24.8271 C.3    1560        0    0.0000
   9363 H         714.6755  -38.8017  -22.6693 H      1560        0    0.0000
   9364 H         716.0262  -37.9165  -23.3698 H      1560        0    0.0000
   9365 H         715.1224  -37.9485  -25.5151 H      1560        0    0.0000
   9366 H         714.4655  -39.5713  -25.3324 H      1560        0    0.0000
   9367 C         713.1480  -37.9991  -24.5828 C.3    1561        0    0.0000
   9368 C         712.2708  -38.0542  -25.8384 C.3    1561        0    0.0000
   9369 H         712.6670  -38.5477  -23.7636 H      1561        0    0.0000
   9370 H         713.2571  -36.9609  -24.2454 H      1561        0    0.0000
   9371 H         712.8989  -38.1612  -26.7316 H      1561        0    0.0000
   9372 H         711.6193  -38.9362  -25.8039 H      1561        0    0.0000
   9373 C         711.3801  -36.7741  -25.9975 C.3    1562        0    0.0000
   9374 C         710.7910  -36.6477  -27.4068 C.3    1562        0    0.0000
   9375 H         710.5737  -36.8098  -25.2546 H      1562        0    0.0000
   9376 H         711.9860  -35.8902  -25.7625 H      1562        0    0.0000
   9377 H         711.5778  -36.3724  -28.1201 H      1562        0    0.0000
   9378 H         710.3919  -37.6152  -27.7358 H      1562        0    0.0000
   9379 C         709.6469  -35.5784  -27.4788 C.3    1563        0    0.0000
   9380 C         708.7426  -35.7767  -28.7003 C.3    1563        0    0.0000
   9381 H         709.0530  -35.6335  -26.5581 H      1563        0    0.0000
   9382 H         710.0983  -34.5788  -27.5032 H      1563        0    0.0000
   9383 H         709.3525  -35.8987  -29.6040 H      1563        0    0.0000
   9384 H         708.1567  -36.6975  -28.5890 H      1563        0    0.0000
   9385 C         707.7591  -34.5746  -28.9128 C.3    1564        0    0.0000
   9386 C         707.0043  -34.6698  -30.2434 C.3    1564        0    0.0000
   9387 H         707.0479  -34.5477  -28.0780 H      1564        0    0.0000
   9388 H         708.3301  -33.6388  -28.8704 H      1564        0    0.0000
   9389 H         707.7083  -34.8638  -31.0621 H      1564        0    0.0000
   9390 H         706.3068  -35.5163  -30.2204 H      1564        0    0.0000
   9391 C         706.2018  -33.3624  -30.5661 C.3    1565        0    0.0000
   9392 C         704.9545  -33.6405  -31.4122 C.3    1565        0    0.0000
   9393 H         705.9167  -32.8805  -29.6227 H      1565        0    0.0000
   9394 H         706.8635  -32.6618  -31.0904 H      1565        0    0.0000
   9395 H         705.2419  -34.0980  -32.3670 H      1565        0    0.0000
   9396 H         704.3055  -34.3616  -30.9000 H      1565        0    0.0000
   9397 C         704.1317  -32.3383  -31.7033 C.3    1566        0    0.0000
   9398 C         703.0013  -32.5784  -32.7100 C.3    1566        0    0.0000
   9399 H         703.7204  -31.9613  -30.7587 H      1566        0    0.0000
   9400 H         704.8137  -31.5661  -32.0805 H      1566        0    0.0000
   9401 H         703.4059  -33.0085  -33.6345 H      1566        0    0.0000
   9402 H         702.2885  -33.3091  -32.3081 H      1566        0    0.0000
   9403 C         702.2291  -31.2602  -33.0618 C.3    1567        0    0.0000
   9404 C         701.0070  -31.5221  -33.9488 C.3    1567        0    0.0000
   9405 H         701.9195  -30.7722  -32.1293 H      1567        0    0.0000
   9406 H         702.9180  -30.5703  -33.5648 H      1567        0    0.0000
   9407 H         701.3110  -32.0476  -34.8625 H      1567        0    0.0000
   9408 H         700.2984  -32.1787  -33.4287 H      1567        0    0.0000
   9409 C         700.2687  -30.1984  -34.3491 C.3    1568        0    0.0000
   9410 C         698.9782  -30.4667  -35.1312 C.3    1568        0    0.0000
   9411 H         700.0452  -29.6289  -33.4385 H      1568        0    0.0000
   9412 H         700.9498  -29.5808  -34.9477 H      1568        0    0.0000
   9413 H         699.1985  -31.0568  -36.0294 H      1568        0    0.0000
   9414 H         698.2873  -31.0640  -34.5234 H      1568        0    0.0000
   9415 C         698.2576  -29.1424  -35.5608 C.3    1569        0    0.0000
   9416 C         696.9395  -29.4104  -36.2955 C.3    1569        0    0.0000
   9417 H         698.0730  -28.5342  -34.6667 H      1569        0    0.0000
   9418 H         698.9344  -28.5634  -36.2015 H      1569        0    0.0000
   9419 H         697.1213  -30.0362  -37.1781 H      1569        0    0.0000
   9420 H         696.2548  -29.9712  -35.6473 H      1569        0    0.0000
   9421 C         696.2336  -28.0870  -36.7512 C.3    1570        0    0.0000
   9422 C         694.8847  -28.3517  -37.4288 C.3    1570        0    0.0000
   9423 H         696.0944  -27.4409  -35.8755 H      1570        0    0.0000
   9424 H         696.8998  -27.5489  -37.4369 H      1570        0    0.0000
   9425 H         695.0209  -29.0157  -38.2914 H      1570        0    0.0000
   9426 H         694.2108  -28.8702  -36.7355 H      1570        0    0.0000
   9427 C         694.1932  -27.0305  -37.9123 C.3    1571        0    0.0000
   9428 C         692.8638  -27.2985  -38.6266 C.3    1571        0    0.0000
   9429 H         694.0295  -26.3792  -37.0449 H      1571        0    0.0000
   9430 H         694.8792  -26.4970  -38.5819 H      1571        0    0.0000
   9431 H         693.0292  -27.9402  -39.5009 H      1571        0    0.0000
   9432 H         692.1822  -27.8424  -37.9610 H      1571        0    0.0000
   9433 C         692.1643  -25.9762  -39.0954 C.3    1572        0    0.0000
   9434 C         691.0363  -26.2402  -40.0990 C.3    1572        0    0.0000
   9435 H         691.7700  -25.4535  -38.2152 H      1572        0    0.0000
   9436 H         692.9184  -25.3164  -39.5421 H      1572        0    0.0000
   9437 H         691.4194  -26.8111  -40.9538 H      1572        0    0.0000
   9438 H         690.2555  -26.8547  -39.6341 H      1572        0    0.0000
   9439 C         690.3882  -24.9139  -40.6267 C.3    1573        0    0.0000
   9440 C         688.8620  -24.9176  -40.4870 C.3    1573        0    0.0000
   9441 H         690.8146  -24.0676  -40.0739 H      1573        0    0.0000
   9442 H         690.6693  -24.7770  -41.6783 H      1573        0    0.0000
   9443 H         688.4254  -25.6760  -41.1486 H      1573        0    0.0000
   9444 H         688.5787  -25.1918  -39.4633 H      1573        0    0.0000
   9445 C         688.2307  -23.5243  -40.8300 C.3    1574        0    0.0000
   9446 C         687.1386  -23.6290  -41.9003 C.3    1574        0    0.0000
   9447 H         687.8173  -23.0878  -39.9123 H      1574        0    0.0000
   9448 H         689.0262  -22.8494  -41.1691 H      1574        0    0.0000
   9449 H         687.5806  -23.9197  -42.8614 H      1574        0    0.0000
   9450 H         686.4229  -24.4159  -41.6318 H      1574        0    0.0000
   9451 C         686.3604  -22.2813  -42.0889 C.3    1575        0    0.0000
   9452 C         686.8085  -21.5224  -43.3430 C.3    1575        0    0.0000
   9453 H         685.2864  -22.4978  -42.1440 H      1575        0    0.0000
   9454 H         686.5110  -21.6584  -41.1985 H      1575        0    0.0000
   9455 H         687.8993  -21.5777  -43.4464 H      1575        0    0.0000
   9456 H         686.3829  -21.9916  -44.2387 H      1575        0    0.0000
   9457 C         686.3798  -20.0149  -43.3100 C.3    1576        0    0.0000
   9458 C         685.2142  -19.7215  -44.2610 C.3    1576        0    0.0000
   9459 H         686.1031  -19.7483  -42.2824 H      1576        0    0.0000
   9460 H         687.2458  -19.3952  -43.5739 H      1576        0    0.0000
   9461 H         685.5907  -19.5581  -45.2783 H      1576        0    0.0000
   9462 H         684.5413  -20.5866  -44.3093 H      1576        0    0.0000
   9463 C         684.3893  -18.4637  -43.8194 C.3    1577        0    0.0000
   9464 C         683.2277  -18.1665  -44.7740 C.3    1577        0    0.0000
   9465 H         684.0087  -18.6292  -42.8038 H      1577        0    0.0000
   9466 H         685.0632  -17.5997  -43.7664 H      1577        0    0.0000
   9467 H         683.5964  -18.0974  -45.8050 H      1577        0    0.0000
   9468 H         682.5033  -18.9901  -44.7530 H      1577        0    0.0000
   9469 C         682.4872  -16.8330  -44.4117 C.3    1578        0    0.0000
   9470 C         681.5447  -16.3702  -45.5281 C.3    1578        0    0.0000
   9471 H         681.9244  -16.9825  -43.4820 H      1578        0    0.0000
   9472 H         683.2357  -16.0578  -44.2057 H      1578        0    0.0000
   9473 H         682.1215  -15.9154  -46.3429 H      1578        0    0.0000
   9474 H         681.0184  -17.2318  -45.9574 H      1578        0    0.0000
   9475 C         680.4849  -15.3332  -45.0191 C.3    1579        0    0.0000
   9476 C         679.4602  -14.9719  -46.0999 C.3    1579        0    0.0000
   9477 H         679.9752  -15.7503  -44.1418 H      1579        0    0.0000
   9478 H         681.0081  -14.4305  -44.6799 H      1579        0    0.0000
   9479 H         679.8602  -15.2118  -47.0929 H      1579        0    0.0000
   9480 H         678.5514  -15.5732  -45.9727 H      1579        0    0.0000
   9481 C         679.0705  -13.4539  -46.0655 C.3    1580        0    0.0000
   9482 C         678.1851  -13.0545  -47.2510 C.3    1580        0    0.0000
   9483 H         678.5527  -13.2430  -45.1215 H      1580        0    0.0000
   9484 H         679.9885  -12.8531  -46.0623 H      1580        0    0.0000
   9485 H         678.7982  -12.6127  -48.0464 H      1580        0    0.0000
   9486 H         677.7064  -13.9438  -47.6794 H      1580        0    0.0000
   9487 C         677.0721  -12.0289  -46.8424 C.3    1581        0    0.0000
   9488 C         676.0290  -11.8325  -47.9480 C.3    1581        0    0.0000
   9489 H         676.5857  -12.3820  -45.9246 H      1581        0    0.0000
   9490 H         677.5468  -11.0704  -46.5986 H      1581        0    0.0000
   9491 H         675.0986  -12.3504  -47.6837 H      1581        0    0.0000
   9492 H         675.7803  -10.7685  -48.0459 H      1581        0    0.0000
   9493 C         676.5269  -12.3649  -49.3359 C.3    1582        0    0.0000
   9494 C         675.4528  -12.2460  -50.4228 C.3    1582        0    0.0000
   9495 H         677.4227  -11.8036  -49.6292 H      1582        0    0.0000
   9496 H         676.8340  -13.4120  -49.2235 H      1582        0    0.0000
   9497 H         675.9020  -12.3917  -51.4130 H      1582        0    0.0000
   9498 H         674.7022  -13.0363  -50.2980 H      1582        0    0.0000
   9499 C         674.7310  -10.8547  -50.3952 C.3    1583        0    0.0000
   9500 C         673.2413  -10.9662  -50.7377 C.3    1583        0    0.0000
   9501 H         674.8559  -10.4113  -49.3995 H      1583        0    0.0000
   9502 H         675.2308  -10.1829  -51.1041 H      1583        0    0.0000
   9503 H         673.1168  -11.2101  -51.8000 H      1583        0    0.0000
   9504 H         672.7853  -11.7871  -50.1705 H      1583        0    0.0000
   9505 C         672.4597   -9.6430  -50.4281 C.3    1584        0    0.0000
   9506 C         671.7510   -9.0837  -51.6666 C.3    1584        0    0.0000
   9507 H         671.7291   -9.8413  -49.6341 H      1584        0    0.0000
   9508 H         673.1636   -8.9014  -50.0305 H      1584        0    0.0000
   9509 H         672.3691   -9.2448  -52.5586 H      1584        0    0.0000
   9510 H         670.8089   -9.6199  -51.8352 H      1584        0    0.0000
   9511 C         671.4439   -7.5521  -51.5345 C.3    1585        0    0.0000
   9512 C         670.0604   -7.1875  -52.0840 C.3    1585        0    0.0000
   9513 H         671.5161   -7.2670  -50.4775 H      1585        0    0.0000
   9514 H         672.2205   -6.9886  -52.0664 H      1585        0    0.0000
   9515 H         669.7116   -7.9673  -52.7723 H      1585        0    0.0000
   9516 H         669.3312   -7.1403  -51.2658 H      1585        0    0.0000
   9517 C         670.0639   -5.8129  -52.8377 C.3    1586        0    0.0000
   9518 C         668.7481   -5.5541  -53.5799 C.3    1586        0    0.0000
   9519 H         670.2501   -5.0119  -52.1115 H      1586        0    0.0000
   9520 H         670.9032   -5.7990  -53.5440 H      1586        0    0.0000
   9521 H         668.9524   -5.1309  -54.5712 H      1586        0    0.0000
   9522 H         668.2168   -6.4997  -53.7443 H      1586        0    0.0000
   9523 C         667.8068   -4.5752  -52.7967 C.3    1587        0    0.0000
   9524 C         666.4218   -4.4600  -53.4427 C.3    1587        0    0.0000
   9525 H         667.7114   -4.9282  -51.7624 H      1587        0    0.0000
   9526 H         668.2834   -3.5882  -52.7499 H      1587        0    0.0000
   9527 H         665.8294   -5.3575  -53.2251 H      1587        0    0.0000
   9528 H         665.8760   -3.6107  -53.0134 H      1587        0    0.0000
   9529 C         666.5047   -4.2739  -54.9970 C.3    1588        0    0.0000
   9530 C         665.1672   -3.8320  -55.6013 C.3    1588        0    0.0000
   9531 H         667.2825   -3.5341  -55.2235 H      1588        0    0.0000
   9532 H         666.8279   -5.2195  -55.4497 H      1588        0    0.0000
   9533 H         664.9754   -4.3805  -56.5318 H      1588        0    0.0000
   9534 H         664.3459   -4.0767  -54.9163 H      1588        0    0.0000
   9535 C         665.1313   -2.2944  -55.9044 C.3    1589        0    0.0000
   9536 C         663.7160   -1.7152  -55.8026 C.3    1589        0    0.0000
   9537 H         665.7997   -1.7800  -55.2029 H      1589        0    0.0000
   9538 H         665.5367   -2.1226  -56.9092 H      1589        0    0.0000
   9539 H         663.0858   -2.3680  -55.1860 H      1589        0    0.0000
   9540 H         663.7440   -0.7396  -55.3015 H      1589        0    0.0000
   9541 C         663.0422   -1.5424  -57.2075 C.3    1590        0    0.0000
   9542 C         661.5613   -1.1628  -57.0987 C.3    1590        0    0.0000
   9543 H         663.5874   -0.7736  -57.7690 H      1590        0    0.0000
   9544 H         663.1503   -2.4787  -57.7690 H      1590        0    0.0000
   9545 H         660.9352   -2.0583  -57.1968 H      1590        0    0.0000
   9546 H         661.3532   -0.7398  -56.1081 H      1590        0    0.0000
   9547 C         661.1324   -0.1242  -58.1918 C.3    1591        0    0.0000
   9548 C         659.8062    0.5642  -57.8504 C.3    1591        0    0.0000
   9549 H         661.9276    0.6239  -58.3001 H      1591        0    0.0000
   9550 H         661.0512   -0.6396  -59.1568 H      1591        0    0.0000
   9551 H         659.0167   -0.1856  -57.7168 H      1591        0    0.0000
   9552 H         659.8953    1.1010  -56.8978 H      1591        0    0.0000
   9553 C         659.3592    1.5763  -58.9609 C.3    1592        0    0.0000
   9554 C         657.8715    1.9305  -58.8593 C.3    1592        0    0.0000
   9555 H         659.9687    2.4847  -58.8775 H      1592        0    0.0000
   9556 H         659.5758    1.1408  -59.9442 H      1592        0    0.0000
   9557 H         657.2983    1.0555  -58.5286 H      1592        0    0.0000
   9558 H         657.7213    2.7100  -58.1020 H      1592        0    0.0000
   9559 C         657.2855    2.4322  -60.2240 C.3    1593        0    0.0000
   9560 C         656.3151    3.6048  -60.0435 C.3    1593        0    0.0000
   9561 H         658.1154    2.7280  -60.8777 H      1593        0    0.0000
   9562 H         656.7769    1.5959  -60.7192 H      1593        0    0.0000
   9563 H         655.4181    3.2716  -59.5070 H      1593        0    0.0000
   9564 H         656.7787    4.3853  -59.4275 H      1593        0    0.0000
   9565 C         655.8810    4.2329  -61.4126 C.3    1594        0    0.0000
   9566 C         654.5822    5.0383  -61.2964 C.3    1594        0    0.0000
   9567 H         656.6907    4.8758  -61.7793 H      1594        0    0.0000
   9568 H         655.7601    3.4281  -62.1483 H      1594        0    0.0000
   9569 H         653.7324    4.3616  -61.1430 H      1594        0    0.0000
   9570 H         654.6242    5.6953  -60.4188 H      1594        0    0.0000
   9571 C         654.3090    5.9120  -62.5690 C.3    1595        0    0.0000
   9572 C         653.2520    6.9925  -62.3158 C.3    1595        0    0.0000
   9573 H         655.2509    6.3748  -62.8890 H      1595        0    0.0000
   9574 H         653.9871    5.2550  -63.3865 H      1595        0    0.0000
   9575 H         653.2028    7.2272  -61.2453 H      1595        0    0.0000
   9576 H         653.5323    7.9206  -62.8293 H      1595        0    0.0000
   9577 C         651.8275    6.5559  -62.8033 C.3    1596        0    0.0000
   9578 C         650.8007    7.6876  -62.6846 C.3    1596        0    0.0000
   9579 H         651.8979    6.2197  -63.8452 H      1596        0    0.0000
   9580 H         651.5022    5.6895  -62.2141 H      1596        0    0.0000
   9581 H         649.8538    7.2966  -62.2920 H      1596        0    0.0000
   9582 H         651.1519    8.4405  -61.9681 H      1596        0    0.0000
   9583 C         650.5267    8.3880  -64.0600 C.3    1597        0    0.0000
   9584 C         649.4331    9.4571  -63.9597 C.3    1597        0    0.0000
   9585 H         651.4604    8.8376  -64.4200 H      1597        0    0.0000
   9586 H         650.2407    7.6251  -64.7946 H      1597        0    0.0000
   9587 H         648.7255    9.1978  -63.1625 H      1597        0    0.0000
   9588 H         649.8754   10.4232  -63.6865 H      1597        0    0.0000
   9589 C         648.6418    9.6254  -65.3025 C.3    1598        0    0.0000
   9590 C         647.5236   10.6676  -65.1911 C.3    1598        0    0.0000
   9591 H         649.3454    9.9117  -66.0941 H      1598        0    0.0000
   9592 H         648.2227    8.6532  -65.5901 H      1598        0    0.0000
   9593 H         646.9804   10.5370  -64.2470 H      1598        0    0.0000
   9594 H         647.9514   11.6777  -65.1713 H      1598        0    0.0000
   9595 C         646.5037   10.5739  -66.3779 C.3    1599        0    0.0000
   9596 C         645.3550   11.5790  -66.2375 C.3    1599        0    0.0000
   9597 H         647.0401   10.7449  -67.3195 H      1599        0    0.0000
   9598 H         646.1062    9.5524  -66.4227 H      1599        0    0.0000
   9599 H         644.4065   11.1086  -66.5247 H      1599        0    0.0000
   9600 H         645.2499   11.8860  -65.1895 H      1599        0    0.0000
   9601 C         645.5728   12.8569  -67.1190 C.3    1600        0    0.0000
   9602 C         644.5584   13.9612  -66.8016 C.3    1600        0    0.0000
   9603 H         646.5933   13.2265  -66.9599 H      1600        0    0.0000
   9604 H         645.5016   12.5734  -68.1764 H      1600        0    0.0000
   9605 H         643.5862   13.5185  -66.5520 H      1600        0    0.0000
   9606 H         644.8824   14.5274  -65.9196 H      1600        0    0.0000
   9607 C         644.3686   14.9554  -67.9986 C.3    1601        0    0.0000
   9608 C         643.1198   15.8290  -67.8357 C.3    1601        0    0.0000
   9609 H         645.2618   15.5873  -68.0786 H      1601        0    0.0000
   9610 H         644.3057   14.3794  -68.9302 H      1601        0    0.0000
   9611 H         642.2491   15.2019  -67.6074 H      1601        0    0.0000
   9612 H         643.2470   16.5125  -66.9871 H      1601        0    0.0000
   9613 C         642.8124   16.6717  -69.1214 C.3    1602        0    0.0000
   9614 C         641.3711   17.1922  -69.1440 C.3    1602        0    0.0000
   9615 H         643.5165   17.5116  -69.1704 H      1602        0    0.0000
   9616 H         643.0018   16.0500  -70.0053 H      1602        0    0.0000
   9617 H         640.9429   17.0707  -70.1468 H      1602        0    0.0000
   9618 H         640.7472   16.6018  -68.4615 H      1602        0    0.0000
   9619 C         641.2783   18.7025  -68.7345 C.3    1603        0    0.0000
   9620 C         639.8442   19.2381  -68.8116 C.3    1603        0    0.0000
   9621 H         641.6684   18.8173  -67.7156 H      1603        0    0.0000
   9622 H         641.9341   19.2878  -69.3907 H      1603        0    0.0000
   9623 H         639.4337   19.0710  -69.8151 H      1603        0    0.0000
   9624 H         639.2001   18.6905  -68.1124 H      1603        0    0.0000
   9625 C         639.7631   20.7683  -68.4807 C.3    1604        0    0.0000
   9626 C         638.3818   21.3568  -68.7889 C.3    1604        0    0.0000
   9627 H         640.0062   20.9143  -67.4210 H      1604        0    0.0000
   9628 H         640.5338   21.2959  -69.0563 H      1604        0    0.0000
   9629 H         637.5967   20.7016  -68.3916 H      1604        0    0.0000
   9630 H         638.2659   22.3263  -68.2888 H      1604        0    0.0000
   9631 C         638.1481   21.5503  -70.3269 C.3    1605        0    0.0000
   9632 C         636.6670   21.7461  -70.6691 C.3    1605        0    0.0000
   9633 H         638.7303   22.4156  -70.6669 H      1605        0    0.0000
   9634 H         638.5443   20.6757  -70.8576 H      1605        0    0.0000
   9635 H         636.0881   20.8710  -70.3490 H      1605        0    0.0000
   9636 H         636.2649   22.6074  -70.1213 H      1605        0    0.0000
   9637 C         636.4365   21.9708  -72.2034 C.3    1606        0    0.0000
   9638 C         634.9906   22.3675  -72.5215 C.3    1606        0    0.0000
   9639 H         637.1259   22.7487  -72.5544 H      1606        0    0.0000
   9640 H         636.7006   21.0506  -72.7391 H      1606        0    0.0000
   9641 H         634.6024   21.7490  -73.3402 H      1606        0    0.0000
   9642 H         634.3487   22.1784  -71.6522 H      1606        0    0.0000
   9643 C         634.8636   23.8771  -72.9246 C.3    1607        0    0.0000
   9644 C         633.5601   24.5055  -72.4194 C.3    1607        0    0.0000
   9645 H         635.7254   24.4241  -72.5224 H      1607        0    0.0000
   9646 H         634.9213   23.9575  -74.0171 H      1607        0    0.0000
   9647 H         632.6996   23.9303  -72.7831 H      1607        0    0.0000
   9648 H         633.5242   24.4675  -71.3236 H      1607        0    0.0000
   9649 C         633.4021   25.9960  -72.8788 C.3    1608        0    0.0000
   9650 C         631.9360   26.3821  -73.1040 C.3    1608        0    0.0000
   9651 H         633.8509   26.6493  -72.1202 H      1608        0    0.0000
   9652 H         633.9761   26.1443  -73.8018 H      1608        0    0.0000
   9653 H         631.3818   25.5300  -73.5169 H      1608        0    0.0000
   9654 H         631.4617   26.6324  -72.1470 H      1608        0    0.0000
   9655 C         631.7856   27.6020  -74.0769 C.3    1609        0    0.0000
   9656 C         630.3628   28.1719  -74.0783 C.3    1609        0    0.0000
   9657 H         632.5018   28.3793  -73.7827 H      1609        0    0.0000
   9658 H         632.0644   27.2837  -75.0890 H      1609        0    0.0000
   9659 H         629.9081   28.0508  -73.0873 H      1609        0    0.0000
   9660 H         630.3893   29.2492  -74.2834 H      1609        0    0.0000
   9661 C         629.4457   27.4773  -75.1432 C.3    1610        0    0.0000
   9662 C         627.9675   27.4979  -74.7387 C.3    1610        0    0.0000
   9663 H         629.5787   27.9824  -76.1079 H      1610        0    0.0000
   9664 H         629.7838   26.4426  -75.2800 H      1610        0    0.0000
   9665 H         627.5051   26.5266  -74.9539 H      1610        0    0.0000
   9666 H         627.8756   27.6578  -73.6572 H      1610        0    0.0000
   9667 C         627.1628   28.6172  -75.4851 C.3    1611        0    0.0000
   9668 C         626.2305   29.3881  -74.5440 C.3    1611        0    0.0000
   9669 H         627.8725   29.3064  -75.9593 H      1611        0    0.0000
   9670 H         626.5830   28.1560  -76.2942 H      1611        0    0.0000
   9671 H         625.8431   28.7182  -73.7665 H      1611        0    0.0000
   9672 H         626.7876   30.1802  -74.0285 H      1611        0    0.0000
   9673 C         625.0208   30.0336  -75.3037 C.3    1612        0    0.0000
   9674 C         624.8699   31.5269  -74.9934 C.3    1612        0    0.0000
   9675 H         625.1606   29.8858  -76.3817 H      1612        0    0.0000
   9676 H         624.1039   29.4978  -75.0286 H      1612        0    0.0000
   9677 H         625.1217   31.7202  -73.9433 H      1612        0    0.0000
   9678 H         625.5749   32.1100  -75.5988 H      1612        0    0.0000
   9679 C         623.4170   32.0472  -75.2686 C.3    1613        0    0.0000
   9680 C         623.4106   33.3716  -76.0400 C.3    1613        0    0.0000
   9681 H         622.8679   31.2818  -75.8309 H      1613        0    0.0000
   9682 H         622.8970   32.1676  -74.3101 H      1613        0    0.0000
   9683 H         624.0652   34.0989  -75.5440 H      1613        0    0.0000
   9684 H         623.8143   33.2212  -77.0489 H      1613        0    0.0000
   9685 C         621.9724   33.9839  -76.1573 C.3    1614        0    0.0000
   9686 C         621.8549   34.9714  -77.3236 C.3    1614        0    0.0000
   9687 H         621.2497   33.1679  -76.2811 H      1614        0    0.0000
   9688 H         621.7233   34.4849  -75.2137 H      1614        0    0.0000
   9689 H         622.8036   35.5046  -77.4621 H      1614        0    0.0000
   9690 H         621.6589   34.4294  -78.2571 H      1614        0    0.0000
   9691 C         620.7128   36.0218  -77.0999 C.3    1615        0    0.0000
   9692 C         620.0389   36.4357  -78.4128 C.3    1615        0    0.0000
   9693 H         619.9702   35.5960  -76.4138 H      1615        0    0.0000
   9694 H         621.1352   36.9023  -76.5999 H      1615        0    0.0000
   9695 H         620.7944   36.5729  -79.1964 H      1615        0    0.0000
   9696 H         619.3676   35.6399  -78.7583 H      1615        0    0.0000
   9697 C         619.2166   37.7622  -78.2660 C.3    1616        0    0.0000
   9698 C         618.2476   37.9771  -79.4339 C.3    1616        0    0.0000
   9699 H         618.6635   37.7324  -77.3190 H      1616        0    0.0000
   9700 H         619.9149   38.6054  -78.1966 H      1616        0    0.0000
   9701 H         618.7942   37.9559  -80.3849 H      1616        0    0.0000
   9702 H         617.5172   37.1594  -79.4720 H      1616        0    0.0000
   9703 C         617.4773   39.3380  -79.3241 C.3    1617        0    0.0000
   9704 C         616.2308   39.3735  -80.2151 C.3    1617        0    0.0000
   9705 H         617.1956   39.5014  -78.2764 H      1617        0    0.0000
   9706 H         618.1587   40.1531  -79.5978 H      1617        0    0.0000
   9707 H         616.5020   39.1353  -81.2511 H      1617        0    0.0000
   9708 H         615.5159   38.6066  -79.8923 H      1617        0    0.0000
   9709 C         615.5201   40.7705  -80.1873 C.3    1618        0    0.0000
   9710 C         614.2866   40.8129  -81.0960 C.3    1618        0    0.0000
   9711 H         615.2339   41.0011  -79.1536 H      1618        0    0.0000
   9712 H         616.2399   41.5395  -80.4939 H      1618        0    0.0000
   9713 H         614.5475   40.4585  -82.1010 H      1618        0    0.0000
   9714 H         613.5140   40.1346  -80.7134 H      1618        0    0.0000
   9715 C         613.6819   42.2547  -81.2098 C.3    1619        0    0.0000
   9716 C         612.2509   42.2427  -81.7583 C.3    1619        0    0.0000
   9717 H         613.7010   42.7254  -80.2191 H      1619        0    0.0000
   9718 H         614.3282   42.8591  -81.8583 H      1619        0    0.0000
   9719 H         612.2164   41.6944  -82.7079 H      1619        0    0.0000
   9720 H         611.5865   41.7128  -81.0644 H      1619        0    0.0000
   9721 C         611.6909   43.6886  -81.9892 C.3    1620        0    0.0000
   9722 C         610.2314   43.6785  -82.4571 C.3    1620        0    0.0000
   9723 H         611.7824   44.2566  -81.0551 H      1620        0    0.0000
   9724 H         612.3199   44.1973  -82.7302 H      1620        0    0.0000
   9725 H         610.1456   43.1413  -83.4097 H      1620        0    0.0000
   9726 H         609.6082   43.1384  -81.7336 H      1620        0    0.0000
   9727 C         609.6558   45.1252  -82.6391 C.3    1621        0    0.0000
   9728 C         608.3871   45.1416  -83.4989 C.3    1621        0    0.0000
   9729 H         609.4450   45.5490  -81.6494 H      1621        0    0.0000
   9730 H         610.4274   45.7580  -83.0949 H      1621        0    0.0000
   9731 H         608.5899   44.6886  -84.4773 H      1621        0    0.0000
   9732 H         607.6047   44.5346  -83.0267 H      1621        0    0.0000
   9733 C         607.8369   46.5931  -83.7184 C.3    1622        0    0.0000
   9734 C         606.4011   46.5951  -84.2544 C.3    1622        0    0.0000
   9735 H         607.8840   47.1368  -82.7668 H      1622        0    0.0000
   9736 H         608.4995   47.1206  -84.4158 H      1622        0    0.0000
   9737 H         606.3403   45.9931  -85.1695 H      1622        0    0.0000
   9738 H         605.7267   46.1289  -83.5253 H      1622        0    0.0000
   9739 C         605.8854   48.0422  -84.5664 C.3    1623        0    0.0000
   9740 C         604.3933   48.2065  -84.2570 C.3    1623        0    0.0000
   9741 H         606.4723   48.7606  -83.9808 H      1623        0    0.0000
   9742 H         606.0773   48.2658  -85.6232 H      1623        0    0.0000
   9743 H         603.7974   47.5867  -84.9384 H      1623        0    0.0000
   9744 H         604.1788   47.8532  -83.2408 H      1623        0    0.0000
   9745 C         603.9206   49.6957  -84.3846 C.3    1624        0    0.0000
   9746 C         603.0069   49.9133  -85.5958 C.3    1624        0    0.0000
   9747 H         603.3980   49.9810  -83.4632 H      1624        0    0.0000
   9748 H         604.8039   50.3420  -84.4588 H      1624        0    0.0000
   9749 H         603.5694   49.7559  -86.5244 H      1624        0    0.0000
   9750 H         602.1942   49.1764  -85.5911 H      1624        0    0.0000
   9751 C         602.3845   51.3518  -85.6196 C.3    1625        0    0.0000
   9752 C         602.2576   51.9064  -87.0428 C.3    1625        0    0.0000
   9753 H         601.3986   51.3186  -85.1395 H      1625        0    0.0000
   9754 H         603.0090   52.0174  -85.0108 H      1625        0    0.0000
   9755 H         603.1108   51.5807  -87.6508 H      1625        0    0.0000
   9756 H         601.3568   51.5056  -87.5237 H      1625        0    0.0000
   9757 C         602.1889   53.4723  -87.0663 C.3    1626        0    0.0000
   9758 C         600.7737   53.9874  -87.3512 C.3    1626        0    0.0000
   9759 H         602.5418   53.8563  -86.1012 H      1626        0    0.0000
   9760 H         602.8853   53.8454  -87.8275 H      1626        0    0.0000
   9761 H         600.6122   54.0645  -88.4335 H      1626        0    0.0000
   9762 H         600.0308   53.2751  -86.9717 H      1626        0    0.0000
   9763 C         600.5092   55.3885  -86.6998 C.3    1627        0    0.0000
   9764 C         599.1177   55.9338  -87.0398 C.3    1627        0    0.0000
   9765 H         600.6230   55.3001  -85.6122 H      1627        0    0.0000
   9766 H         601.2814   56.0888  -87.0415 H      1627        0    0.0000
   9767 H         598.4592   55.1145  -87.3539 H      1627        0    0.0000
   9768 H         598.6607   56.3811  -86.1483 H      1627        0    0.0000
   9769 C         599.1633   57.0103  -88.1784 C.3    1628        0    0.0000
   9770 C         597.7646   57.4947  -88.5761 C.3    1628        0    0.0000
   9771 H         599.7727   57.8574  -87.8399 H      1628        0    0.0000
   9772 H         599.6749   56.5823  -89.0494 H      1628        0    0.0000
   9773 H         597.7149   57.6506  -89.6609 H      1628        0    0.0000
   9774 H         597.0181   56.7284  -88.3334 H      1628        0    0.0000
   9775 C         597.3710   58.8299  -87.8552 C.3    1629        0    0.0000
   9776 C         595.8688   59.1194  -87.9484 C.3    1629        0    0.0000
   9777 H         597.6776   58.7677  -86.8036 H      1629        0    0.0000
   9778 H         597.9413   59.6541  -88.3013 H      1629        0    0.0000
   9779 H         595.3209   58.1955  -88.1717 H      1629        0    0.0000
   9780 H         595.4950   59.4818  -86.9828 H      1629        0    0.0000
   9781 C         595.5360   60.1832  -89.0506 C.3    1630        0    0.0000
   9782 C         594.0504   60.1837  -89.4277 C.3    1630        0    0.0000
   9783 H         595.8318   61.1747  -88.6859 H      1630        0    0.0000
   9784 H         596.1490   59.9777  -89.9370 H      1630        0    0.0000
   9785 H         593.8579   59.4280  -90.1992 H      1630        0    0.0000
   9786 H         593.4415   59.9081  -88.5578 H      1630        0    0.0000
   9787 C         593.5723   61.5796  -89.9572 C.3    1631        0    0.0000
   9788 C         592.1093   61.8659  -89.6015 C.3    1631        0    0.0000
   9789 H         594.2209   62.3583  -89.5369 H      1631        0    0.0000
   9790 H         593.7078   61.6103  -91.0454 H      1631        0    0.0000
   9791 H         591.4436   61.3570  -90.3095 H      1631        0    0.0000
   9792 H         591.8784   61.4638  -88.6072 H      1631        0    0.0000
   9793 C         591.7837   63.3993  -89.6145 C.3    1632        0    0.0000
   9794 C         590.5851   63.7310  -90.5104 C.3    1632        0    0.0000
   9795 H         591.5872   63.7278  -88.5864 H      1632        0    0.0000
   9796 H         592.6713   63.9463  -89.9558 H      1632        0    0.0000
   9797 H         590.7858   63.4116  -91.5405 H      1632        0    0.0000
   9798 H         589.7001   63.1762  -90.1753 H      1632        0    0.0000
   9799 C         590.2507   65.2625  -90.5123 C.3    1633        0    0.0000
   9800 C         588.8333   65.5469  -91.0214 C.3    1633        0    0.0000
   9801 H         590.3696   65.6517  -89.4935 H      1633        0    0.0000
   9802 H         590.9865   65.7843  -91.1367 H      1633        0    0.0000
   9803 H         588.7291   65.2000  -92.0569 H      1633        0    0.0000
   9804 H         588.1006   64.9877  -90.4265 H      1633        0    0.0000
   9805 C         588.4751   67.0719  -90.9608 C.3    1634        0    0.0000
   9806 C         587.1830   67.3956  -91.7189 C.3    1634        0    0.0000
   9807 H         588.3796   67.3712  -89.9097 H      1634        0    0.0000
   9808 H         589.3103   67.6481  -91.3778 H      1634        0    0.0000
   9809 H         587.3041   67.1645  -92.7845 H      1634        0    0.0000
   9810 H         586.3633   66.7659  -91.3512 H      1634        0    0.0000
   9811 C         586.7690   68.9005  -91.5721 C.3    1635        0    0.0000
   9812 C         585.3687   69.1749  -92.1312 C.3    1635        0    0.0000
   9813 H         586.8115   69.1769  -90.5113 H      1635        0    0.0000
   9814 H         587.5094   69.5229  -92.0897 H      1635        0    0.0000
   9815 H         585.2709   68.7370  -93.1323 H      1635        0    0.0000
   9816 H         584.6110   68.6928  -91.5011 H      1635        0    0.0000
   9817 C         585.0532   70.7080  -92.2173 C.3    1636        0    0.0000
   9818 C         583.7224   70.9884  -92.9239 C.3    1636        0    0.0000
   9819 H         585.0346   71.1228  -91.2018 H      1636        0    0.0000
   9820 H         585.8732   71.2086  -92.7471 H      1636        0    0.0000
   9821 H         583.8728   71.0212  -94.0101 H      1636        0    0.0000
   9822 H         583.0138   70.1740  -92.7284 H      1636        0    0.0000
   9823 C         583.0777   72.3407  -92.4620 C.3    1637        0    0.0000
   9824 C         581.7215   72.5954  -93.1289 C.3    1637        0    0.0000
   9825 H         582.9631   72.3233  -91.3710 H      1637        0    0.0000
   9826 H         583.7703   73.1596  -92.6929 H      1637        0    0.0000
   9827 H         581.6627   72.0533  -94.0808 H      1637        0    0.0000
   9828 H         580.9128   72.2093  -92.4961 H      1637        0    0.0000
   9829 C         581.4688   74.1188  -93.3985 C.3    1638        0    0.0000
   9830 C         580.1609   74.3650  -94.1589 C.3    1638        0    0.0000
   9831 H         581.4515   74.6497  -92.4386 H      1638        0    0.0000
   9832 H         582.3160   74.5227  -93.9666 H      1638        0    0.0000
   9833 H         580.3546   74.4013  -95.2381 H      1638        0    0.0000
   9834 H         579.4660   73.5330  -93.9911 H      1638        0    0.0000
   9835 C         579.4641   75.7007  -93.7253 C.3    1639        0    0.0000
   9836 C         578.0718   75.8576  -94.3465 C.3    1639        0    0.0000
   9837 H         579.3925   75.7230  -92.6308 H      1639        0    0.0000
   9838 H         580.1031   76.5436  -94.0164 H      1639        0    0.0000
   9839 H         578.0635   75.4407  -95.3611 H      1639        0    0.0000
   9840 H         577.3347   75.2889  -93.7661 H      1639        0    0.0000
   9841 C         577.6160   77.3561  -94.4121 C.3    1640        0    0.0000
   9842 C         576.3594   77.5439  -95.2693 C.3    1640        0    0.0000
   9843 H         577.4324   77.7149  -93.3918 H      1640        0    0.0000
   9844 H         578.4395   77.9589  -94.8146 H      1640        0    0.0000
   9845 H         576.5883   77.3386  -96.3224 H      1640        0    0.0000
   9846 H         575.5879   76.8244  -94.9685 H      1640        0    0.0000
   9847 C         575.7720   78.9928  -95.1531 C.3    1641        0    0.0000
   9848 C         574.3277   79.0763  -95.6592 C.3    1641        0    0.0000
   9849 H         575.8223   79.3116  -94.1046 H      1641        0    0.0000
   9850 H         576.4105   79.6798  -95.7223 H      1641        0    0.0000
   9851 H         574.2659   78.6927  -96.6851 H      1641        0    0.0000
   9852 H         573.6769   78.4412  -95.0456 H      1641        0    0.0000
   9853 C         573.7731   80.5424  -95.6336 C.3    1642        0    0.0000
   9854 C         572.4530   80.6775  -96.4004 C.3    1642        0    0.0000
   9855 H         573.6349   80.8499  -94.5896 H      1642        0    0.0000
   9856 H         574.5277   81.2134  -96.0625 H      1642        0    0.0000
   9857 H         572.5906   80.3673  -97.4437 H      1642        0    0.0000
   9858 H         571.6976   80.0085  -95.9698 H      1642        0    0.0000
   9859 C         571.9004   82.1443  -96.3781 C.3    1643        0    0.0000
   9860 C         570.4491   82.2257  -96.8640 C.3    1643        0    0.0000
   9861 H         571.9775   82.5357  -95.3561 H      1643        0    0.0000
   9862 H         572.5432   82.7739  -97.0058 H      1643        0    0.0000
   9863 H         570.3740   81.8446  -97.8900 H      1643        0    0.0000
   9864 H         569.8082   81.5875  -96.2431 H      1643        0    0.0000
   9865 C         569.8914   83.6903  -96.8270 C.3    1644        0    0.0000
   9866 C         568.4864   83.7923  -97.4307 C.3    1644        0    0.0000
   9867 H         569.8799   84.0381  -95.7866 H      1644        0    0.0000
   9868 H         570.5831   84.3459  -97.3707 H      1644        0    0.0000
   9869 H         568.4965   83.4379  -98.4689 H      1644        0    0.0000
   9870 H         567.7933   83.1421  -96.8826 H      1644        0    0.0000
   9871 C         567.9327   85.2587  -97.4027 C.3    1645        0    0.0000
   9872 C         566.4911   85.3451  -97.9159 C.3    1645        0    0.0000
   9873 H         567.9896   85.6385  -96.3751 H      1645        0    0.0000
   9874 H         568.5872   85.8955  -98.0107 H      1645        0    0.0000
   9875 H         566.4379   84.9840  -98.9505 H      1645        0    0.0000
   9876 H         565.8402   84.6928  -97.3206 H      1645        0    0.0000
   9877 C         565.9276   86.8069  -97.8613 C.3    1646        0    0.0000
   9878 C         564.4915   86.8960  -98.3894 C.3    1646        0    0.0000
   9879 H         565.9700   87.1638  -96.8248 H      1646        0    0.0000
   9880 H         566.5851   87.4614  -98.4469 H      1646        0    0.0000
   9881 H         564.4488   86.5374  -99.4253 H      1646        0    0.0000
   9882 H         563.8338   86.2430  -97.8025 H      1646        0    0.0000
   9883 C         563.9290   88.3583  -98.3373 C.3    1647        0    0.0000
   9884 C         562.4781   88.4402  -98.8244 C.3    1647        0    0.0000
   9885 H         564.0014   88.7285  -97.3071 H      1647        0    0.0000
   9886 H         564.5688   89.0053  -98.9502 H      1647        0    0.0000
   9887 H         562.4070   88.0763  -99.8569 H      1647        0    0.0000
   9888 H         561.8397   87.7881  -98.2158 H      1647        0    0.0000
   9889 C         561.9125   89.9010  -98.7634 C.3    1648        0    0.0000
   9890 C         560.4504   89.9772  -99.2168 C.3    1648        0    0.0000
   9891 H         562.0079   90.2745  -97.7363 H      1648        0    0.0000
   9892 H         562.5359   90.5481  -99.3929 H      1648        0    0.0000
   9893 H         560.3569   89.6134 -100.2475 H      1648        0    0.0000
   9894 H         559.8288   89.3221  -98.5938 H      1648        0    0.0000
   9895 C         559.8804   91.4356  -99.1418 C.3    1649        0    0.0000
   9896 C         558.4139   91.5093  -99.5812 C.3    1649        0    0.0000
   9897 H         559.9839   91.8033  -98.1134 H      1649        0    0.0000
   9898 H         560.4955   92.0886  -99.7733 H      1649        0    0.0000
   9899 H         558.3150   91.1707 -100.6200 H      1649        0    0.0000
   9900 H         557.8037   90.8329  -98.9700 H      1649        0    0.0000
   9901 C         557.8311   92.9599  -99.4649 C.3    1650        0    0.0000
   9902 C         556.3873   93.0481  -99.9716 C.3    1650        0    0.0000
   9903 H         557.8819   93.2784  -98.4164 H      1650        0    0.0000
   9904 H         558.4719   93.6451 -100.0337 H      1650        0    0.0000
   9905 H         556.3426   92.7674 -101.0312 H      1650        0    0.0000
   9906 H         555.7542   92.3346  -99.4297 H      1650        0    0.0000
   9907 C         555.7857   94.4860  -99.8040 C.3    1651        0    0.0000
   9908 C         554.3332   94.5678 -100.2865 C.3    1651        0    0.0000
   9909 H         555.8478   94.7744  -98.7474 H      1651        0    0.0000
   9910 H         556.4078   95.1969 -100.3618 H      1651        0    0.0000
   9911 H         554.2693   94.2684 -101.3399 H      1651        0    0.0000
   9912 H         553.7089   93.8650  -99.7209 H      1651        0    0.0000
   9913 C         553.7367   96.0094 -100.1338 C.3    1652        0    0.0000
   9914 C         552.2081   96.0203 -100.2447 C.3    1652        0    0.0000
   9915 H         554.0465   96.4194  -99.1645 H      1652        0    0.0000
   9916 H         554.1744   96.6566 -100.9040 H      1652        0    0.0000
   9917 H         551.8992   95.6315 -101.2229 H      1652        0    0.0000
   9918 H         551.7714   95.3555  -99.4892 H      1652        0    0.0000
   9919 C         551.6093   97.4572 -100.0600 C.3    1653        0    0.0000
   9920 C         550.1841   97.5681 -100.6131 C.3    1653        0    0.0000
   9921 H         551.6191   97.7100  -98.9925 H      1653        0    0.0000
   9922 H         552.2645   98.1805 -100.5611 H      1653        0    0.0000
   9923 H         550.1895   97.4165 -101.6996 H      1653        0    0.0000
   9924 H         549.5531   96.7778 -100.1878 H      1653        0    0.0000
   9925 C         549.5319   98.9588 -100.3001 C.3    1654        0    0.0000
   9926 C         548.6735   99.4722 -101.4614 C.3    1654        0    0.0000
   9927 H         548.9216   98.8670  -99.3931 H      1654        0    0.0000
   9928 H         550.3273   99.6794 -100.0730 H      1654        0    0.0000
   9929 H         549.2360   99.4099 -102.4012 H      1654        0    0.0000
   9930 H         547.7865   98.8381 -101.5826 H      1654        0    0.0000
   9931 C         548.2097  100.9543 -101.2474 C.3    1655        0    0.0000
   9932 C         546.7651  101.0438 -100.7432 C.3    1655        0    0.0000
   9933 H         548.8880  101.4375 -100.5333 H      1655        0    0.0000
   9934 H         548.3115  101.4970 -102.1954 H      1655        0    0.0000
   9935 H         546.0820  100.6003 -101.4781 H      1655        0    0.0000
   9936 H         546.6528  100.4640  -99.8186 H      1655        0    0.0000
   9937 C         546.3220  102.5224 -100.4694 C.3    1656        0    0.0000
   9938 C         545.0895  102.6007  -99.5616 C.3    1656        0    0.0000
   9939 H         547.1599  103.0640 -100.0134 H      1656        0    0.0000
   9940 H         546.1144  103.0127 -101.4285 H      1656        0    0.0000
   9941 H         544.1898  102.3224 -100.1241 H      1656        0    0.0000
   9942 H         545.1819  101.8809  -98.7389 H      1656        0    0.0000
   9943 C         544.8856  104.0334  -98.9588 C.3    1657        0    0.0000
   9944 C         543.6437  104.7306  -99.5252 C.3    1657        0    0.0000
   9945 H         544.8055  103.9500  -97.8679 H      1657        0    0.0000
   9946 H         545.7805  104.6340  -99.1639 H      1657        0    0.0000
   9947 H         543.7065  104.7803 -100.6193 H      1657        0    0.0000
   9948 H         542.7446  104.1489  -99.2873 H      1657        0    0.0000
   9949 C         543.4694  106.1833  -98.9625 C.3    1658        0    0.0000
   9950 C         542.1086  106.7876  -99.3262 C.3    1658        0    0.0000
   9951 H         543.5901  106.1571  -97.8724 H      1658        0    0.0000
   9952 H         544.2776  106.8135  -99.3539 H      1658        0    0.0000
   9953 H         542.0371  106.9270 -100.4120 H      1658        0    0.0000
   9954 H         541.3033  106.0985  -99.0433 H      1658        0    0.0000
   9955 C         541.8640  108.1670  -98.6226 C.3    1659        0    0.0000
   9956 C         540.4265  108.6659  -98.8065 C.3    1659        0    0.0000
   9957 H         542.0928  108.0646  -97.5546 H      1659        0    0.0000
   9958 H         542.5717  108.9009  -99.0275 H      1659        0    0.0000
   9959 H         540.2060  108.7927  -99.8737 H      1659        0    0.0000
   9960 H         539.7178  107.9206  -98.4247 H      1659        0    0.0000
   9961 C         540.1718  110.0276  -98.0727 C.3    1660        0    0.0000
   9962 C         538.7474  110.5487  -98.2931 C.3    1660        0    0.0000
   9963 H         540.3611  109.8924  -97.0006 H      1660        0    0.0000
   9964 H         540.9016  110.7643  -98.4311 H      1660        0    0.0000
   9965 H         538.5646  110.7023  -99.3639 H      1660        0    0.0000
   9966 H         538.0175  109.8038  -97.9526 H      1660        0    0.0000
   9967 C         538.4842  111.8965  -97.5371 C.3    1661        0    0.0000
   9968 C         537.0305  112.3632  -97.6709 C.3    1661        0    0.0000
   9969 H         538.7410  111.7643  -96.4787 H      1661        0    0.0000
   9970 H         539.1631  112.6622  -97.9326 H      1661        0    0.0000
   9971 H         536.7772  112.5063  -98.7287 H      1661        0    0.0000
   9972 H         536.3512  111.5927  -97.2858 H      1661        0    0.0000
   9973 C         536.7633  113.7027  -96.9016 C.3    1662        0    0.0000
   9974 C         535.3112  114.1728  -97.0408 C.3    1662        0    0.0000
   9975 H         537.0121  113.5582  -95.8430 H      1662        0    0.0000
   9976 H         537.4460  114.4720  -97.2835 H      1662        0    0.0000
   9977 H         535.0659  114.3282  -98.0987 H      1662        0    0.0000
   9978 H         534.6281  113.3989  -96.6694 H      1662        0    0.0000
   9979 C         535.0400  115.5039  -96.2584 C.3    1663        0    0.0000
   9980 C         533.5728  115.9386  -96.3426 C.3    1663        0    0.0000
   9981 H         535.3311  115.3634  -95.2100 H      1663        0    0.0000
   9982 H         535.6893  116.2903  -96.6629 H      1663        0    0.0000
   9983 H         533.2845  116.0890  -97.3904 H      1663        0    0.0000
   9984 H         532.9230  115.1480  -95.9475 H      1663        0    0.0000
   9985 C         533.2987  117.2620  -95.5483 C.3    1664        0    0.0000
   9986 C         531.8252  117.6798  -95.6064 C.3    1664        0    0.0000
   9987 H         533.6083  117.1191  -94.5056 H      1664        0    0.0000
   9988 H         533.9320  118.0583  -95.9587 H      1664        0    0.0000
   9989 H         531.5191  117.8350  -96.6484 H      1664        0    0.0000
   9990 H         531.1910  116.8784  -95.2077 H      1664        0    0.0000
   9991 C         531.5478  118.9936  -94.7973 C.3    1665        0    0.0000
   9992 C         530.0669  119.3877  -94.8196 C.3    1665        0    0.0000
   9993 H         531.8831  118.8492  -93.7628 H      1665        0    0.0000
   9994 H         532.1588  119.8027  -95.2164 H      1665        0    0.0000
   9995 H         529.7359  119.5481  -95.8531 H      1665        0    0.0000
   9996 H         529.4543  118.5721  -94.4156 H      1665        0    0.0000
   9997 C         529.7858  120.6886  -93.9913 C.3    1666        0    0.0000
   9998 C         528.2995  121.0629  -93.9843 C.3    1666        0    0.0000
   9999 H         530.1404  120.5375  -92.9642 H      1666        0    0.0000
  10000 H         530.3787  121.5104  -94.4116 H      1666        0    0.0000
  10001 H         527.9482  121.2274  -95.0104 H      1666        0    0.0000
  10002 H         527.7053  120.2357  -93.5766 H      1666        0    0.0000
  10003 C         528.0157  122.3530  -93.1401 C.3    1667        0    0.0000
  10004 C         526.5250  122.7071  -93.1036 C.3    1667        0    0.0000
  10005 H         528.3906  122.1981  -92.1207 H      1667        0    0.0000
  10006 H         528.5900  123.1862  -93.5637 H      1667        0    0.0000
  10007 H         526.1549  122.8818  -94.1215 H      1667        0    0.0000
  10008 H         525.9484  121.8661  -92.6988 H      1667        0    0.0000
  10009 C         526.2379  123.9807  -92.2360 C.3    1668        0    0.0000
  10010 C         524.7455  124.3258  -92.1869 C.3    1668        0    0.0000
  10011 H         526.6181  123.8103  -91.2211 H      1668        0    0.0000
  10012 H         526.8058  124.8243  -92.6476 H      1668        0    0.0000
  10013 H         524.3701  124.5174  -93.1998 H      1668        0    0.0000
  10014 H         524.1751  123.4744  -91.7954 H      1668        0    0.0000
  10015 C         524.4550  125.5816  -91.2946 C.3    1669        0    0.0000
  10016 C         523.1548  126.2889  -91.6926 C.3    1669        0    0.0000
  10017 H         524.4053  125.2658  -90.2451 H      1669        0    0.0000
  10018 H         525.3007  126.2758  -91.3750 H      1669        0    0.0000
  10019 H         523.1769  126.5442  -92.7593 H      1669        0    0.0000
  10020 H         522.3008  125.6158  -91.5474 H      1669        0    0.0000
  10021 C         522.9131  127.5979  -90.8646 C.3    1670        0    0.0000
  10022 C         521.9127  127.3866  -89.7228 C.3    1670        0    0.0000
  10023 H         523.8734  127.9453  -90.4639 H      1670        0    0.0000
  10024 H         522.5517  128.3824  -91.5410 H      1670        0    0.0000
  10025 H         520.9103  127.2048  -90.1298 H      1670        0    0.0000
  10026 H         522.1846  126.4947  -89.1448 H      1670        0    0.0000
  10027 C         521.8491  128.6169  -88.7535 C.3    1671        0    0.0000
  10028 C         520.4260  129.1665  -88.6052 C.3    1671        0    0.0000
  10029 H         522.2399  128.3157  -87.7736 H      1671        0    0.0000
  10030 H         522.5173  129.4003  -89.1320 H      1671        0    0.0000
  10031 H         520.1685  129.7832  -89.4752 H      1671        0    0.0000
  10032 H         519.7045  128.3405  -88.5798 H      1671        0    0.0000
  10033 C         520.2540  130.0278  -87.3067 C.3    1672        0    0.0000
  10034 C         520.6244  131.4980  -87.5315 C.3    1672        0    0.0000
  10035 H         519.2143  129.9497  -86.9657 H      1672        0    0.0000
  10036 H         520.8788  129.5997  -86.5130 H      1672        0    0.0000
  10037 H         521.4001  131.5767  -88.3032 H      1672        0    0.0000
  10038 H         519.7536  132.0527  -87.9025 H      1672        0    0.0000
  10039 C         521.1423  132.1872  -86.2222 C.3    1673        0    0.0000
  10040 C         520.2851  133.3932  -85.8225 C.3    1673        0    0.0000
  10041 H         521.1508  131.4469  -85.4126 H      1673        0    0.0000
  10042 H         522.1829  132.4993  -86.3747 H      1673        0    0.0000
  10043 H         520.6004  134.2815  -86.3839 H      1673        0    0.0000
  10044 H         519.2352  133.2117  -86.0839 H      1673        0    0.0000
  10045 C         520.3773  133.7056  -84.2891 C.3    1674        0    0.0000
  10046 C         519.4572  134.8593  -83.8750 C.3    1674        0    0.0000
  10047 H         520.1199  132.7990  -83.7274 H      1674        0    0.0000
  10048 H         521.4182  133.9461  -84.0392 H      1674        0    0.0000
  10049 H         519.8310  135.8049  -84.2869 H      1674        0    0.0000
  10050 H         518.4539  134.7086  -84.2922 H      1674        0    0.0000
  10051 C         519.3414  134.9973  -82.3177 C.3    1675        0    0.0000
  10052 C         518.5799  136.2607  -81.9016 C.3    1675        0    0.0000
  10053 H         518.8386  134.1070  -81.9203 H      1675        0    0.0000
  10054 H         520.3506  135.0076  -81.8876 H      1675        0    0.0000
  10055 H         518.3425  136.2213  -80.8312 H      1675        0    0.0000
  10056 H         519.2096  137.1462  -82.0523 H      1675        0    0.0000
  10057 C         517.2482  136.4443  -82.7080 C.3    1676        0    0.0000
  10058 C         516.3915  137.5916  -82.1612 C.3    1676        0    0.0000
  10059 H         517.4949  136.6279  -83.7611 H      1676        0    0.0000
  10060 H         516.6830  135.5045  -82.6761 H      1676        0    0.0000
  10061 H         516.0269  138.2153  -82.9868 H      1676        0    0.0000
  10062 H         515.5053  137.1906  -81.6540 H      1676        0    0.0000
  10063 C         517.1831  138.4969  -81.1556 C.3    1677        0    0.0000
  10064 C         516.2850  139.5413  -80.4834 C.3    1677        0    0.0000
  10065 H         517.6499  137.8575  -80.3962 H      1677        0    0.0000
  10066 H         517.9996  138.9937  -81.6943 H      1677        0    0.0000
  10067 H         515.7994  140.1652  -81.2439 H      1677        0    0.0000
  10068 H         515.4827  139.0437  -79.9247 H      1677        0    0.0000
  10069 C         517.0831  140.4687  -79.5034 C.3    1678        0    0.0000
  10070 C         516.1591  141.2657  -78.5760 C.3    1678        0    0.0000
  10071 H         517.7685  139.8503  -78.9107 H      1678        0    0.0000
  10072 H         517.7058  141.1532  -80.0927 H      1678        0    0.0000
  10073 H         515.5077  141.9216  -79.1668 H      1678        0    0.0000
  10074 H         515.5013  140.5834  -78.0233 H      1678        0    0.0000
  10075 C         516.9583  142.1396  -77.5488 C.3    1679        0    0.0000
  10076 C         516.0450  143.0702  -76.7434 C.3    1679        0    0.0000
  10077 H         517.5090  141.4747  -76.8719 H      1679        0    0.0000
  10078 H         517.7085  142.7270  -78.0926 H      1679        0    0.0000
  10079 H         516.6044  143.9552  -76.4157 H      1679        0    0.0000
  10080 H         515.2249  143.4322  -77.3757 H      1679        0    0.0000
  10081 C         515.4370  142.3620  -75.4839 C.3    1680        0    0.0000
  10082 C         514.1089  142.9909  -75.0484 C.3    1680        0    0.0000
  10083 H         515.2928  141.2985  -75.7113 H      1680        0    0.0000
  10084 H         516.1641  142.4131  -74.6640 H      1680        0    0.0000
  10085 H         513.5101  143.2533  -75.9294 H      1680        0    0.0000
  10086 H         513.5206  142.2662  -74.4721 H      1680        0    0.0000
  10087 C         514.3181  144.2780  -74.1782 C.3    1681        0    0.0000
  10088 C         512.9902  144.9270  -73.7724 C.3    1681        0    0.0000
  10089 H         514.8947  144.0105  -73.2841 H      1681        0    0.0000
  10090 H         514.9283  144.9924  -74.7446 H      1681        0    0.0000
  10091 H         512.6415  145.5987  -74.5668 H      1681        0    0.0000
  10092 H         512.2178  144.1577  -73.6488 H      1681        0    0.0000
  10093 C         513.1102  145.7415  -72.4384 C.3    1682        0    0.0000
  10094 C         512.1442  146.9306  -72.3948 C.3    1682        0    0.0000
  10095 H         512.9162  145.0681  -71.5944 H      1682        0    0.0000
  10096 H         514.1440  146.0926  -72.3302 H      1682        0    0.0000
  10097 H         511.9974  147.3332  -73.4048 H      1682        0    0.0000
  10098 H         511.1592  146.6022  -72.0404 H      1682        0    0.0000
  10099 C         512.6591  148.0807  -71.4624 C.3    1683        0    0.0000
  10100 C         511.5766  148.5730  -70.4953 C.3    1683        0    0.0000
  10101 H         513.5286  147.7177  -70.9003 H      1683        0    0.0000
  10102 H         513.0117  148.9110  -72.0866 H      1683        0    0.0000
  10103 H         510.7935  147.8121  -70.3884 H      1683        0    0.0000
  10104 H         512.0053  148.7263  -69.4972 H      1683        0    0.0000
  10105 C         510.9175  149.9126  -70.9734 C.3    1684        0    0.0000
  10106 C         509.8324  150.4028  -70.0084 C.3    1684        0    0.0000
  10107 H         511.7002  150.6742  -71.0777 H      1684        0    0.0000
  10108 H         510.4912  149.7600  -71.9727 H      1684        0    0.0000
  10109 H         509.1947  151.1446  -70.5049 H      1684        0    0.0000
  10110 H         509.1803  149.5688  -69.7206 H      1684        0    0.0000
  10111 C         510.4362  151.0429  -68.7110 C.3    1685        0    0.0000
  10112 C         509.4050  151.1507  -67.5824 C.3    1685        0    0.0000
  10113 H         511.2909  150.4382  -68.3832 H      1685        0    0.0000
  10114 H         510.8296  152.0369  -68.9573 H      1685        0    0.0000
  10115 H         508.8003  152.0570  -67.7106 H      1685        0    0.0000
  10116 H         508.7121  150.3012  -67.6235 H      1685        0    0.0000
  10117 C         510.0760  151.1873  -66.1660 C.3    1686        0    0.0000
  10118 C         509.4403  152.2381  -65.2491 C.3    1686        0    0.0000
  10119 H         509.9952  150.1925  -65.7107 H      1686        0    0.0000
  10120 H         511.1469  151.3923  -66.2873 H      1686        0    0.0000
  10121 H         510.2113  152.7124  -64.6293 H      1686        0    0.0000
  10122 H         508.9846  153.0351  -65.8497 H      1686        0    0.0000
  10123 C         508.3451  151.6235  -64.3108 C.3    1687        0    0.0000
  10124 C         507.2879  152.6540  -63.8993 C.3    1687        0    0.0000
  10125 H         507.8684  150.7816  -64.8280 H      1687        0    0.0000
  10126 H         508.8342  151.2100  -63.4201 H      1687        0    0.0000
  10127 H         507.0607  153.3173  -64.7431 H      1687        0    0.0000
  10128 H         506.3513  152.1473  -63.6357 H      1687        0    0.0000
  10129 C         507.7507  153.5261  -62.6816 C.3    1688        0    0.0000
  10130 C         506.8604  154.7567  -62.4767 C.3    1688        0    0.0000
  10131 H         507.7454  152.9034  -61.7784 H      1688        0    0.0000
  10132 H         508.7903  153.8367  -62.8439 H      1688        0    0.0000
  10133 H         506.8192  155.3490  -63.3992 H      1688        0    0.0000
  10134 H         505.8319  154.4445  -62.2567 H      1688        0    0.0000
  10135 C         507.3710  155.6720  -61.3110 C.3    1689        0    0.0000
  10136 C         506.2202  156.2536  -60.4825 C.3    1689        0    0.0000
  10137 H         508.0388  155.0858  -60.6676 H      1689        0    0.0000
  10138 H         507.9752  156.4827  -61.7367 H      1689        0    0.0000
  10139 H         505.7596  157.0940  -61.0164 H      1689        0    0.0000
  10140 H         505.4357  155.4989  -60.3464 H      1689        0    0.0000
  10141 C         506.6943  156.7495  -59.0729 C.3    1690        0    0.0000
  10142 C         505.7313  157.7744  -58.4636 C.3    1690        0    0.0000
  10143 H         506.7916  155.8827  -58.4075 H      1690        0    0.0000
  10144 H         507.6960  157.1860  -59.1702 H      1690        0    0.0000
  10145 H         505.3035  158.4044  -59.2532 H      1690        0    0.0000
  10146 H         504.8910  157.2603  -57.9808 H      1690        0    0.0000
  10147 C         506.4342  158.6954  -57.4076 C.3    1691        0    0.0000
  10148 C         505.4980  159.0784  -56.2561 C.3    1691        0    0.0000
  10149 H         507.3176  158.1752  -57.0170 H      1691        0    0.0000
  10150 H         506.7982  159.5986  -57.9128 H      1691        0    0.0000
  10151 H         504.6699  158.3619  -56.1904 H      1691        0    0.0000
  10152 H         506.0357  159.0271  -55.3012 H      1691        0    0.0000
  10153 C         504.9064  160.5202  -56.4259 C.3    1692        0    0.0000
  10154 C         503.7199  160.7751  -55.4898 C.3    1692        0    0.0000
  10155 H         505.7003  161.2529  -56.2352 H      1692        0    0.0000
  10156 H         504.5975  160.6550  -57.4700 H      1692        0    0.0000
  10157 H         502.9247  161.3070  -56.0267 H      1692        0    0.0000
  10158 H         503.2919  159.8215  -55.1567 H      1692        0    0.0000
  10159 C         504.1271  161.6139  -54.2295 C.3    1693        0    0.0000
  10160 C         503.2213  161.3310  -53.0260 C.3    1693        0    0.0000
  10161 H         505.1704  161.3880  -53.9764 H      1693        0    0.0000
  10162 H         504.0890  162.6797  -54.4867 H      1693        0    0.0000
  10163 H         502.2629  161.8512  -53.1460 H      1693        0    0.0000
  10164 H         502.9932  160.2593  -52.9706 H      1693        0    0.0000
  10165 C         503.8736  161.7794  -51.6730 C.3    1694        0    0.0000
  10166 C         502.9064  162.5885  -50.8018 C.3    1694        0    0.0000
  10167 H         504.2121  160.8877  -51.1309 H      1694        0    0.0000
  10168 H         504.7694  162.3737  -51.8922 H      1694        0    0.0000
  10169 H         503.4372  163.4214  -50.3243 H      1694        0    0.0000
  10170 H         502.1200  163.0320  -51.4251 H      1694        0    0.0000
  10171 C         502.2350  161.7126  -49.6885 C.3    1695        0    0.0000
  10172 C         501.1671  162.4854  -48.9066 C.3    1695        0    0.0000
  10173 H         501.7901  160.8257  -50.1567 H      1695        0    0.0000
  10174 H         503.0136  161.3511  -49.0054 H      1695        0    0.0000
  10175 H         500.8277  163.3513  -49.4885 H      1695        0    0.0000
  10176 H         500.2872  161.8508  -48.7436 H      1695        0    0.0000
  10177 C         501.6937  162.9854  -47.5172 C.3    1696        0    0.0000
  10178 C         500.8419  164.1261  -46.9495 C.3    1696        0    0.0000
  10179 H         501.7046  162.1401  -46.8181 H      1696        0    0.0000
  10180 H         502.7344  163.3136  -47.6308 H      1696        0    0.0000
  10181 H         500.8552  164.9826  -47.6349 H      1696        0    0.0000
  10182 H         499.7957  163.8074  -46.8636 H      1696        0    0.0000
  10183 C         501.3436  164.5981  -45.5413 C.3    1697        0    0.0000
  10184 C         500.2440  165.3023  -44.7389 C.3    1697        0    0.0000
  10185 H         501.7138  163.7264  -44.9874 H      1697        0    0.0000
  10186 H         502.1992  165.2711  -45.6780 H      1697        0    0.0000
  10187 H         500.0663  166.3059  -45.1448 H      1697        0    0.0000
  10188 H         499.2992  164.7526  -44.8328 H      1697        0    0.0000
  10189 C         500.6060  165.4288  -43.2189 C.3    1698        0    0.0000
  10190 C         499.6610  166.3780  -42.4739 C.3    1698        0    0.0000
  10191 H         500.5732  164.4313  -42.7634 H      1698        0    0.0000
  10192 H         501.6408  165.7819  -43.1301 H      1698        0    0.0000
  10193 H         499.5572  167.3182  -43.0296 H      1698        0    0.0000
  10194 H         498.6584  165.9373  -42.4102 H      1698        0    0.0000
  10195 C         500.1642  166.7006  -41.0246 C.3    1699        0    0.0000
  10196 C         499.0213  167.1175  -40.0924 C.3    1699        0    0.0000
  10197 H         500.6742  165.8166  -40.6224 H      1699        0    0.0000
  10198 H         500.9145  167.4991  -41.0803 H      1699        0    0.0000
  10199 H         498.8263  168.1923  -40.1938 H      1699        0    0.0000
  10200 H         498.0962  166.6012  -40.3771 H      1699        0    0.0000
  10201 C         499.3349  166.8005  -38.5894 C.3    1700        0    0.0000
  10202 C         498.6388  167.7749  -37.6328 C.3    1700        0    0.0000
  10203 H         499.0216  165.7718  -38.3723 H      1700        0    0.0000
  10204 H         500.4210  166.8374  -38.4394 H      1700        0    0.0000
  10205 H         499.3058  168.0233  -36.7979 H      1700        0    0.0000
  10206 H         498.4176  168.7166  -38.1503 H      1700        0    0.0000
  10207 C         497.3038  167.1895  -37.0561 C.3    1701        0    0.0000
  10208 C         496.4162  168.2723  -36.4327 C.3    1701        0    0.0000
  10209 H         496.7638  166.6791  -37.8632 H      1701        0    0.0000
  10210 H         497.5471  166.4254  -36.3074 H      1701        0    0.0000
  10211 H         496.6990  169.2592  -36.8194 H      1701        0    0.0000
  10212 H         495.3692  168.1105  -36.7175 H      1701        0    0.0000
  10213 C         496.5166  168.2949  -34.8684 C.3    1702        0    0.0000
  10214 C         495.8016  169.5053  -34.2579 C.3    1702        0    0.0000
  10215 H         496.0876  167.3658  -34.4731 H      1702        0    0.0000
  10216 H         497.5756  168.2997  -34.5821 H      1702        0    0.0000
  10217 H         496.3831  170.4174  -34.4409 H      1702        0    0.0000
  10218 H         494.8276  169.6503  -34.7416 H      1702        0    0.0000
  10219 C         495.5806  169.3483  -32.7139 C.3    1703        0    0.0000
  10220 C         494.9980  170.6156  -32.0787 C.3    1703        0    0.0000
  10221 H         494.9113  168.4972  -32.5373 H      1703        0    0.0000
  10222 H         496.5394  169.0982  -32.2431 H      1703        0    0.0000
  10223 H         495.7839  171.3716  -31.9584 H      1703        0    0.0000
  10224 H         494.2389  171.0527  -32.7393 H      1703        0    0.0000
  10225 C         494.3489  170.3345  -30.6797 C.3    1704        0    0.0000
  10226 C         494.2242  171.6049  -29.8315 C.3    1704        0    0.0000
  10227 H         493.3596  169.8857  -30.8326 H      1704        0    0.0000
  10228 H         494.9554  169.5880  -30.1521 H      1704        0    0.0000
  10229 H         495.1754  171.8154  -29.3271 H      1704        0    0.0000
  10230 H         494.0112  172.4675  -30.4750 H      1704        0    0.0000
  10231 C         493.0942  171.4893  -28.7511 C.3    1705        0    0.0000
  10232 C         493.3827  172.3479  -27.5147 C.3    1705        0    0.0000
  10233 H         492.1407  171.7892  -29.2031 H      1705        0    0.0000
  10234 H         492.9882  170.4365  -28.4615 H      1705        0    0.0000
  10235 H         494.1796  171.8895  -26.9160 H      1705        0    0.0000
  10236 H         493.7469  173.3366  -27.8199 H      1705        0    0.0000
  10237 C         492.1151  172.5333  -26.6111 C.3    1706        0    0.0000
  10238 C         492.4770  172.9467  -25.1804 C.3    1706        0    0.0000
  10239 H         491.4630  173.2884  -27.0674 H      1706        0    0.0000
  10240 H         491.5488  171.5937  -26.5993 H      1706        0    0.0000
  10241 H         493.1364  172.1961  -24.7273 H      1706        0    0.0000
  10242 H         493.0355  173.8909  -25.1916 H      1706        0    0.0000
  10243 C         491.2101  173.1198  -24.2735 C.3    1707        0    0.0000
  10244 C         491.5758  173.3705  -22.8064 C.3    1707        0    0.0000
  10245 H         490.6102  173.9534  -24.6594 H      1707        0    0.0000
  10246 H         490.5891  172.2193  -24.3579 H      1707        0    0.0000
  10247 H         492.1974  172.5495  -22.4281 H      1707        0    0.0000
  10248 H         492.1750  174.2853  -22.7191 H      1707        0    0.0000
  10249 C         490.3089  173.5071  -21.8933 C.3    1708        0    0.0000
  10250 C         490.6667  173.5298  -20.4032 C.3    1708        0    0.0000
  10251 H         489.7740  174.4254  -22.1658 H      1708        0    0.0000
  10252 H         489.6292  172.6722  -22.1043 H      1708        0    0.0000
  10253 H         491.0283  172.5431  -20.0881 H      1708        0    0.0000
  10254 H         491.4854  174.2375  -20.2236 H      1708        0    0.0000
  10255 C         489.4460  173.9309  -19.5051 C.3    1709        0    0.0000
  10256 C         489.7314  173.7288  -18.0129 C.3    1709        0    0.0000
  10257 H         489.1927  174.9803  -19.7009 H      1709        0    0.0000
  10258 H         488.5751  173.3353  -19.8056 H      1709        0    0.0000
  10259 H         489.9662  172.6758  -17.8141 H      1709        0    0.0000
  10260 H         490.6136  174.3098  -17.7166 H      1709        0    0.0000
  10261 C         488.5203  174.1550  -17.1134 C.3    1710        0    0.0000
  10262 C         488.7363  173.7944  -15.6395 C.3    1710        0    0.0000
  10263 H         488.3658  175.2361  -17.2174 H      1710        0    0.0000
  10264 H         487.6117  173.6692  -17.4903 H      1710        0    0.0000
  10265 H         488.8566  172.7093  -15.5315 H      1710        0    0.0000
  10266 H         489.6631  174.2522  -15.2721 H      1710        0    0.0000
  10267 C         487.5468  174.2636  -14.7326 C.3    1711        0    0.0000
  10268 C         487.6841  173.7640  -13.2902 C.3    1711        0    0.0000
  10269 H         487.5013  175.3596  -14.7483 H      1711        0    0.0000
  10270 H         486.6067  173.9029  -15.1678 H      1711        0    0.0000
  10271 H         487.7330  172.6682  -13.2747 H      1711        0    0.0000
  10272 H         488.6227  174.1275  -12.8538 H      1711        0    0.0000
  10273 C         486.4922  174.2293  -12.3843 C.3    1712        0    0.0000
  10274 C         486.5547  173.6154  -10.9815 C.3    1712        0    0.0000
  10275 H         486.5060  175.3242  -12.3167 H      1712        0    0.0000
  10276 H         485.5489  173.9557  -12.8730 H      1712        0    0.0000
  10277 H         486.5716  172.5206  -11.0504 H      1712        0    0.0000
  10278 H         487.4842  173.9139  -10.4812 H      1712        0    0.0000
  10279 C         485.3398  174.0467  -10.0895 C.3    1713        0    0.0000
  10280 C         485.3550  173.3636   -8.7176 C.3    1713        0    0.0000
  10281 H         485.3603  175.1367   -9.9672 H      1713        0    0.0000
  10282 H         484.4095  173.8065  -10.6190 H      1713        0    0.0000
  10283 H         485.4299  172.2759   -8.8397 H      1713        0    0.0000
  10284 H         486.2397  173.6785   -8.1503 H      1713        0    0.0000
  10285 C         484.0729  173.6906   -7.8768 C.3    1714        0    0.0000
  10286 C         484.0677  172.9727   -6.5227 C.3    1714        0    0.0000
  10287 H         484.0154  174.7759   -7.7275 H      1714        0    0.0000
  10288 H         483.1870  173.4050   -8.4574 H      1714        0    0.0000
  10289 H         484.2542  171.9010   -6.6644 H      1714        0    0.0000
  10290 H         484.8807  173.3533   -5.8920 H      1714        0    0.0000
  10291 C         482.7100  173.1529   -5.7600 C.3    1715        0    0.0000
  10292 C         482.7069  172.4401   -4.4033 C.3    1715        0    0.0000
  10293 H         482.5213  174.2248   -5.6223 H      1715        0    0.0000
  10294 H         481.8974  172.7682   -6.3889 H      1715        0    0.0000
  10295 H         483.0712  171.4116   -4.5178 H      1715        0    0.0000
  10296 H         483.3951  172.9429   -3.7126 H      1715        0    0.0000
  10297 C         481.2798  172.4015   -3.7556 C.3    1716        0    0.0000
  10298 C         481.2841  171.7244   -2.3807 C.3    1716        0    0.0000
  10299 H         480.9033  173.4282   -3.6682 H      1716        0    0.0000
  10300 H         480.5982  171.8726   -4.4333 H      1716        0    0.0000
  10301 H         481.8290  170.7736   -2.4313 H      1716        0    0.0000
  10302 H         481.8135  172.3526   -1.6536 H      1716        0    0.0000
  10303 C         479.8351  171.4487   -1.8497 C.3    1717        0    0.0000
  10304 C         479.8380  170.8356   -0.4450 C.3    1717        0    0.0000
  10305 H         479.2740  172.3914   -1.8475 H      1717        0    0.0000
  10306 H         479.3229  170.7788   -2.5514 H      1717        0    0.0000
  10307 H         480.5134  169.9716   -0.4131 H      1717        0    0.0000
  10308 H         480.2216  171.5623    0.2818 H      1717        0    0.0000
  10309 C         478.4085  170.3764    0.0058 C.3    1718        0    0.0000
  10310 C         478.4119  169.7611    1.4095 C.3    1718        0    0.0000
  10311 H         477.7336  171.2408   -0.0244 H      1718        0    0.0000
  10312 H         478.0242  169.6510   -0.7220 H      1718        0    0.0000
  10313 H         479.4006  169.3424    1.6343 H      1718        0    0.0000
  10314 H         478.2201  170.5371    2.1609 H      1718        0    0.0000
  10315 C         477.3372  168.6305    1.5651 C.3    1719        0    0.0000
  10316 C         477.0621  168.2888    3.0337 C.3    1719        0    0.0000
  10317 H         476.4107  168.9532    1.0741 H      1719        0    0.0000
  10318 H         477.6830  167.7377    1.0296 H      1719        0    0.0000
  10319 H         477.9366  167.7949    3.4751 H      1719        0    0.0000
  10320 H         476.8955  169.2079    3.6090 H      1719        0    0.0000
  10321 C         475.8150  167.3540    3.2026 C.3    1720        0    0.0000
  10322 C         475.4434  167.1416    4.6743 C.3    1720        0    0.0000
  10323 H         474.9682  167.7927    2.6604 H      1720        0    0.0000
  10324 H         476.0289  166.3895    2.7257 H      1720        0    0.0000
  10325 H         476.3027  167.3720    5.3163 H      1720        0    0.0000
  10326 H         474.6406  167.8315    4.9629 H      1720        0    0.0000
  10327 C         474.9761  165.6735    4.9632 C.3    1721        0    0.0000
  10328 C         474.3818  165.5187    6.3674 C.3    1721        0    0.0000
  10329 H         474.2361  165.3827    4.2073 H      1721        0    0.0000
  10330 H         475.8329  164.9992    4.8409 H      1721        0    0.0000
  10331 H         475.1411  165.7497    7.1247 H      1721        0    0.0000
  10332 H         473.5648  166.2365    6.5113 H      1721        0    0.0000
  10333 C         473.8348  164.0723    6.6249 C.3    1722        0    0.0000
  10334 C         473.1777  163.9367    8.0029 C.3    1722        0    0.0000
  10335 H         473.1129  163.8219    5.8377 H      1722        0    0.0000
  10336 H         474.6632  163.3591    6.5313 H      1722        0    0.0000
  10337 H         473.9475  163.8601    8.7808 H      1722        0    0.0000
  10338 H         472.5894  164.8346    8.2292 H      1722        0    0.0000
  10339 C         472.2411  162.6828    8.0937 C.3    1723        0    0.0000
  10340 C         471.5316  162.5847    9.4486 C.3    1723        0    0.0000
  10341 H         471.5019  162.7344    7.2848 H      1723        0    0.0000
  10342 H         472.8398  161.7807    7.9163 H      1723        0    0.0000
  10343 H         471.5259  163.5644    9.9421 H      1723        0    0.0000
  10344 H         470.4824  162.2987    9.3040 H      1723        0    0.0000
  10345 C         472.2125  161.5428   10.4017 C.3    1724        0    0.0000
  10346 C         471.3875  161.2880   11.6679 C.3    1724        0    0.0000
  10347 H         472.3588  160.6043    9.8528 H      1724        0    0.0000
  10348 H         473.2110  161.9094   10.6707 H      1724        0    0.0000
  10349 H         471.6495  162.0205   12.4414 H      1724        0    0.0000
  10350 H         470.3199  161.4231   11.4548 H      1724        0    0.0000
  10351 C         471.6096  159.8461   12.2416 C.3    1725        0    0.0000
  10352 C         470.8123  159.6034   13.5278 C.3    1725        0    0.0000
  10353 H         471.3226  159.1134   11.4772 H      1725        0    0.0000
  10354 H         472.6807  159.7016   12.4300 H      1725        0    0.0000
  10355 H         471.3882  158.9695   14.2134 H      1725        0    0.0000
  10356 H         470.6389  160.5537   14.0478 H      1725        0    0.0000
  10357 C         469.4291  158.9201   13.2494 C.3    1726        0    0.0000
  10358 C         468.4349  159.1325   14.3963 C.3    1726        0    0.0000
  10359 H         469.0175  159.3225   12.3154 H      1726        0    0.0000
  10360 H         469.5912  157.8474   13.0859 H      1726        0    0.0000
  10361 H         468.7386  159.9951   15.0024 H      1726        0    0.0000
  10362 H         467.4408  159.3643   13.9943 H      1726        0    0.0000
  10363 C         468.3233  157.8756   15.3264 C.3    1727        0    0.0000
  10364 C         467.0684  157.9130   16.2054 C.3    1727        0    0.0000
  10365 H         468.3187  156.9733   14.7023 H      1727        0    0.0000
  10366 H         469.2210  157.8196   15.9545 H      1727        0    0.0000
  10367 H         467.2198  158.5986   17.0483 H      1727        0    0.0000
  10368 H         466.2185  158.3025   15.6313 H      1727        0    0.0000
  10369 C         466.6933  156.4980   16.7662 C.3    1728        0    0.0000
  10370 C         466.0014  156.5789   18.1313 C.3    1728        0    0.0000
  10371 H         466.0410  155.9926   16.0433 H      1728        0    0.0000
  10372 H         467.6063  155.8945   16.8424 H      1728        0    0.0000
  10373 H         466.5607  157.2475   18.7975 H      1728        0    0.0000
  10374 H         464.9992  157.0111   18.0202 H      1728        0    0.0000
  10375 C         465.8730  155.1748   18.8165 C.3    1729        0    0.0000
  10376 C         464.5930  155.0502   19.6501 C.3    1729        0    0.0000
  10377 H         465.8935  154.3995   18.0406 H      1729        0    0.0000
  10378 H         466.7526  155.0090   19.4508 H      1729        0    0.0000
  10379 H         464.5252  155.8821   20.3620 H      1729        0    0.0000
  10380 H         463.7122  155.1195   18.9997 H      1729        0    0.0000
  10381 C         464.5299  153.6997   20.4438 C.3    1730        0    0.0000
  10382 C         463.5215  153.7502   21.5969 C.3    1730        0    0.0000
  10383 H         464.2664  152.8930   19.7487 H      1730        0    0.0000
  10384 H         465.5308  153.4691   20.8292 H      1730        0    0.0000
  10385 H         463.5445  154.7380   22.0737 H      1730        0    0.0000
  10386 H         462.5036  153.6093   21.2129 H      1730        0    0.0000
  10387 C         463.8071  152.6576   22.6842 C.3    1731        0    0.0000
  10388 C         462.5307  151.9389   23.1347 C.3    1731        0    0.0000
  10389 H         464.5233  151.9329   22.2775 H      1731        0    0.0000
  10390 H         464.2944  153.1335   23.5442 H      1731        0    0.0000
  10391 H         461.7605  152.6727   23.4028 H      1731        0    0.0000
  10392 H         462.1235  151.3422   22.3091 H      1731        0    0.0000
  10393 C         462.7809  150.9975   24.3630 C.3    1732        0    0.0000
  10394 C         461.4749  150.4613   24.9594 C.3    1732        0    0.0000
  10395 H         463.4195  150.1640   24.0453 H      1732        0    0.0000
  10396 H         463.3427  151.5521   25.1249 H      1732        0    0.0000
  10397 H         461.1173  151.1345   25.7484 H      1732        0    0.0000
  10398 H         460.6932  150.4342   24.1902 H      1732        0    0.0000
  10399 C         461.6425  149.0230   25.5601 C.3    1733        0    0.0000
  10400 C         460.3161  148.4477   26.0687 C.3    1733        0    0.0000
  10401 H         462.0674  148.3659   24.7911 H      1733        0    0.0000
  10402 H         462.3729  149.0642   26.3778 H      1733        0    0.0000
  10403 H         459.4750  148.9377   25.5628 H      1733        0    0.0000
  10404 H         460.2514  147.3799   25.8254 H      1733        0    0.0000
  10405 C         460.1467  148.6243   27.6171 C.3    1734        0    0.0000
  10406 C         458.7786  148.1409   28.1106 C.3    1734        0    0.0000
  10407 H         460.9467  148.0721   28.1256 H      1734        0    0.0000
  10408 H         460.2850  149.6830   27.8695 H      1734        0    0.0000
  10409 H         458.3712  148.8488   28.8430 H      1734        0    0.0000
  10410 H         458.0678  148.1074   27.2756 H      1734        0    0.0000
  10411 C         458.8524  146.7198   28.7684 C.3    1735        0    0.0000
  10412 C         457.5282  145.9569   28.6532 C.3    1735        0    0.0000
  10413 H         459.6580  146.1497   28.2891 H      1735        0    0.0000
  10414 H         459.1310  146.8326   29.8235 H      1735        0    0.0000
  10415 H         456.6867  146.6608   28.6599 H      1735        0    0.0000
  10416 H         457.4841  145.4223   27.6962 H      1735        0    0.0000
  10417 C         457.3335  144.9254   29.8176 C.3    1736        0    0.0000
  10418 C         455.8632  144.7802   30.2251 C.3    1736        0    0.0000
  10419 H         457.7336  143.9545   29.5004 H      1736        0    0.0000
  10420 H         457.9325  145.2470   30.6786 H      1736        0    0.0000
  10421 H         455.3580  145.7521   30.1634 H      1736        0    0.0000
  10422 H         455.3441  144.1105   29.5282 H      1736        0    0.0000
  10423 C         455.7025  144.2187   31.6798 C.3    1737        0    0.0000
  10424 C         454.9222  142.8999   31.7105 C.3    1737        0    0.0000
  10425 H         456.6990  144.0764   32.1160 H      1737        0    0.0000
  10426 H         455.1938  144.9712   32.2951 H      1737        0    0.0000
  10427 H         453.8839  143.0698   31.3998 H      1737        0    0.0000
  10428 H         455.3538  142.1908   30.9933 H      1737        0    0.0000
  10429 C         454.9225  142.2424   33.1336 C.3    1738        0    0.0000
  10430 C         453.6933  141.3565   33.3645 C.3    1738        0    0.0000
  10431 H         455.8394  141.6513   33.2498 H      1738        0    0.0000
  10432 H         454.9615  143.0362   33.8899 H      1738        0    0.0000
  10433 H         452.7823  141.9677   33.3563 H      1738        0    0.0000
  10434 H         453.5935  140.6313   32.5474 H      1738        0    0.0000
  10435 C         453.7680  140.5792   34.7238 C.3    1739        0    0.0000
  10436 C         452.6992  139.4856   34.8270 C.3    1739        0    0.0000
  10437 H         454.7678  140.1388   34.8247 H      1739        0    0.0000
  10438 H         453.6546  141.2951   35.5472 H      1739        0    0.0000
  10439 H         451.7343  139.8680   34.4717 H      1739        0    0.0000
  10440 H         452.9615  138.6408   34.1782 H      1739        0    0.0000
  10441 C         452.5255  138.9612   36.2941 C.3    1740        0    0.0000
  10442 C         451.3514  137.9851   36.4269 C.3    1740        0    0.0000
  10443 H         453.4571  138.4741   36.6081 H      1740        0    0.0000
  10444 H         452.3785  139.8195   36.9613 H      1740        0    0.0000
  10445 H         450.4012  138.5227   36.3184 H      1740        0    0.0000
  10446 H         451.3869  137.2421   35.6205 H      1740        0    0.0000
  10447 C         451.3540  137.2365   37.8042 C.3    1741        0    0.0000
  10448 C         450.3010  136.1245   37.8629 C.3    1741        0    0.0000
  10449 H         452.3532  136.8179   37.9773 H      1741        0    0.0000
  10450 H         451.1754  137.9663   38.6037 H      1741        0    0.0000
  10451 H         449.3973  136.4332   37.3228 H      1741        0    0.0000
  10452 H         450.6761  135.2242   37.3606 H      1741        0    0.0000
  10453 C         449.9083  135.7552   39.3350 C.3    1742        0    0.0000
  10454 C         448.8646  134.6344   39.3940 C.3    1742        0    0.0000
  10455 H         450.8133  135.4553   39.8778 H      1742        0    0.0000
  10456 H         449.5244  136.6534   39.8345 H      1742        0    0.0000
  10457 H         447.8667  135.0382   39.1828 H      1742        0    0.0000
  10458 H         449.0721  133.8860   38.6191 H      1742        0    0.0000
  10459 C         448.8363  133.9218   40.7900 C.3    1743        0    0.0000
  10460 C         447.8854  132.7199   40.8095 C.3    1743        0    0.0000
  10461 H         449.8541  133.6003   41.0436 H      1743        0    0.0000
  10462 H         448.5368  134.6508   41.5531 H      1743        0    0.0000
  10463 H         446.9102  133.0051   40.3958 H      1743        0    0.0000
  10464 H         448.2774  131.9197   40.1694 H      1743        0    0.0000
  10465 C         447.6745  132.1526   42.2556 C.3    1744        0    0.0000
  10466 C         446.5839  131.0769   42.3042 C.3    1744        0    0.0000
  10467 H         448.6253  131.7408   42.6160 H      1744        0    0.0000
  10468 H         447.4157  132.9813   42.9263 H      1744        0    0.0000
  10469 H         445.5992  131.5319   42.1403 H      1744        0    0.0000
  10470 H         446.7345  130.3517   41.4949 H      1744        0    0.0000
  10471 C         446.5653  130.3111   43.6719 C.3    1745        0    0.0000
  10472 C         445.5344  129.1771   43.6887 C.3    1745        0    0.0000
  10473 H         447.5680  129.9108   43.8667 H      1745        0    0.0000
  10474 H         446.3503  131.0268   44.4751 H      1745        0    0.0000
  10475 H         444.5609  129.5487   43.3458 H      1745        0    0.0000
  10476 H         445.8337  128.3862   42.9898 H      1745        0    0.0000
  10477 C         445.3623  128.5516   45.1158 C.3    1746        0    0.0000
  10478 C         444.2542  127.4936   45.1565 C.3    1746        0    0.0000
  10479 H         446.3170  128.1086   45.4252 H      1746        0    0.0000
  10480 H         445.1418  129.3549   45.8297 H      1746        0    0.0000
  10481 H         443.2733  127.9718   45.0443 H      1746        0    0.0000
  10482 H         444.3651  126.8002   44.3136 H      1746        0    0.0000
  10483 C         444.2661  126.6719   46.4916 C.3    1747        0    0.0000
  10484 C         443.1963  125.5746   46.5078 C.3    1747        0    0.0000
  10485 H         445.2610  126.2294   46.6256 H      1747        0    0.0000
  10486 H         444.1118  127.3603   47.3318 H      1747        0    0.0000
  10487 H         442.2257  125.9911   46.2113 H      1747        0    0.0000
  10488 H         443.4431  124.7977   45.7736 H      1747        0    0.0000
  10489 C         443.0502  124.9080   47.9191 C.3    1748        0    0.0000
  10490 C         441.9323  123.8603   47.9538 C.3    1748        0    0.0000
  10491 H         444.0070  124.4464   48.1928 H      1748        0    0.0000
  10492 H         442.8547  125.6916   48.6617 H      1748        0    0.0000
  10493 H         440.9535  124.3525   47.8955 H      1748        0    0.0000
  10494 H         442.0063  123.2020   47.0793 H      1748        0    0.0000
  10495 C         441.9801  122.9830   49.2521 C.3    1749        0    0.0000
  10496 C         440.8909  121.9050   49.2652 C.3    1749        0    0.0000
  10497 H         442.9708  122.5178   49.3282 H      1749        0    0.0000
  10498 H         441.8718  123.6380   50.1256 H      1749        0    0.0000
  10499 H         439.9253  122.3424   48.9828 H      1749        0    0.0000
  10500 H         441.1170  121.1327   48.5196 H      1749        0    0.0000
  10501 C         440.7457  121.2241   50.6698 C.3    1750        0    0.0000
  10502 C         439.6231  120.1811   50.6965 C.3    1750        0    0.0000
  10503 H         441.7012  120.7552   50.9359 H      1750        0    0.0000
  10504 H         440.5558  122.0005   51.4212 H      1750        0    0.0000
  10505 H         438.6461  120.6801   50.7055 H      1750        0    0.0000
  10506 H         439.6560  119.5696   49.7862 H      1750        0    0.0000
  10507 C         439.7194  119.2362   51.9436 C.3    1751        0    0.0000
  10508 C         438.6153  118.1733   51.9538 C.3    1751        0    0.0000
  10509 H         440.7052  118.7547   51.9472 H      1751        0    0.0000
  10510 H         439.6633  119.8456   52.8541 H      1751        0    0.0000
  10511 H         437.6529  118.6280   51.6880 H      1751        0    0.0000
  10512 H         438.8225  117.4084   51.1952 H      1751        0    0.0000
  10513 C         438.4756  117.4751   53.3504 C.3    1752        0    0.0000
  10514 C         437.3409  116.4450   53.3739 C.3    1752        0    0.0000
  10515 H         439.4280  116.9915   53.6008 H      1752        0    0.0000
  10516 H         438.3021  118.2434   54.1140 H      1752        0    0.0000
  10517 H         436.3712  116.9548   53.4310 H      1752        0    0.0000
  10518 H         437.3385  115.8668   52.4416 H      1752        0    0.0000
  10519 C         437.4629  115.4542   54.5826 C.3    1753        0    0.0000
  10520 C         436.3554  114.3948   54.5793 C.3    1753        0    0.0000
  10521 H         438.4467  114.9701   54.5451 H      1753        0    0.0000
  10522 H         437.4304  116.0296   55.5161 H      1753        0    0.0000
  10523 H         435.3919  114.8587   54.3343 H      1753        0    0.0000
  10524 H         436.5522  113.6473   53.8009 H      1753        0    0.0000
  10525 C         436.2278  113.6644   55.9605 C.3    1754        0    0.0000
  10526 C         435.0845  112.6438   55.9745 C.3    1754        0    0.0000
  10527 H         437.1790  113.1668   56.1866 H      1754        0    0.0000
  10528 H         436.0711  114.4156   56.7446 H      1754        0    0.0000
  10529 H         434.1197  113.1607   56.0489 H      1754        0    0.0000
  10530 H         435.0694  112.0829   55.0317 H      1754        0    0.0000
  10531 C         435.2076  111.6299   57.1637 C.3    1755        0    0.0000
  10532 C         434.0960  110.5750   57.1451 C.3    1755        0    0.0000
  10533 H         436.1893  111.1429   57.1130 H      1755        0    0.0000
  10534 H         435.1811  112.1877   58.1081 H      1755        0    0.0000
  10535 H         433.1231  111.0565   56.9867 H      1755        0    0.0000
  10536 H         434.2464  109.8849   56.3056 H      1755        0    0.0000
  10537 C         434.0396  109.7476   58.4754 C.3    1756        0    0.0000
  10538 C         432.8661  108.7621   58.4973 C.3    1756        0    0.0000
  10539 H         434.9868  109.2075   58.5963 H      1756        0    0.0000
  10540 H         433.9632  110.4425   59.3210 H      1756        0    0.0000
  10541 H         431.9209  109.3054   58.6194 H      1756        0    0.0000
  10542 H         432.8029  108.2312   57.5394 H      1756        0    0.0000
  10543 C         432.9962  107.7089   59.6511 C.3    1757        0    0.0000
  10544 C         431.8515  106.6898   59.6391 C.3    1757        0    0.0000
  10545 H         433.9597  107.1935   59.5525 H      1757        0    0.0000
  10546 H         433.0189  108.2379   60.6119 H      1757        0    0.0000
  10547 H         430.8855  107.2095   59.6208 H      1757        0    0.0000
  10548 H         431.8991  106.0812   58.7276 H      1757        0    0.0000
  10549 C         431.8899  105.7384   60.8845 C.3    1758        0    0.0000
  10550 C         430.6714  104.8107   60.9446 C.3    1758        0    0.0000
  10551 H         432.8125  105.1458   60.8484 H      1758        0    0.0000
  10552 H         431.9431  106.3490   61.7944 H      1758        0    0.0000
  10553 H         429.7587  105.3984   61.1027 H      1758        0    0.0000
  10554 H         430.5483  104.2890   59.9874 H      1758        0    0.0000
  10555 C         430.7913  103.7459   62.0888 C.3    1759        0    0.0000
  10556 C         429.6104  102.7690   62.0992 C.3    1759        0    0.0000
  10557 H         431.7327  103.1967   61.9635 H      1759        0    0.0000
  10558 H         430.8566  104.2674   63.0517 H      1759        0    0.0000
  10559 H         428.6698  103.3173   62.2341 H      1759        0    0.0000
  10560 H         429.5393  102.2545   61.1329 H      1759        0    0.0000
  10561 C         429.7370  101.6959   63.2349 C.3    1760        0    0.0000
  10562 C         428.4865  100.8168   63.3456 C.3    1760        0    0.0000
  10563 H         430.6182  101.0732   63.0364 H      1760        0    0.0000
  10564 H         429.9218  102.2087   64.1870 H      1760        0    0.0000
  10565 H         427.6106  101.4360   63.5758 H      1760        0    0.0000
  10566 H         428.2834  100.3289   62.3842 H      1760        0    0.0000
  10567 C         428.6308   99.7147   64.4510 C.3    1761        0    0.0000
  10568 C         427.4037   98.7992   64.5221 C.3    1761        0    0.0000
  10569 H         429.5307   99.1223   64.2444 H      1761        0    0.0000
  10570 H         428.7915  100.2043   65.4195 H      1761        0    0.0000
  10571 H         426.5099   99.3864   64.7667 H      1761        0    0.0000
  10572 H         427.2203   98.3392   63.5432 H      1761        0    0.0000
  10573 C         427.5705   97.6641   65.5904 C.3    1762        0    0.0000
  10574 C         426.3075   96.8070   65.7293 C.3    1762        0    0.0000
  10575 H         428.4231   97.0344   65.3072 H      1762        0    0.0000
  10576 H         427.8231   98.1209   66.5553 H      1762        0    0.0000
  10577 H         425.4575   97.4348   66.0240 H      1762        0    0.0000
  10578 H         426.0482   96.3596   64.7618 H      1762        0    0.0000
  10579 C         426.4799   95.6617   66.7857 C.3    1763        0    0.0000
  10580 C         425.2314   94.7797   66.8952 C.3    1763        0    0.0000
  10581 H         427.3482   95.0516   66.5073 H      1763        0    0.0000
  10582 H         426.7099   96.1108   67.7598 H      1763        0    0.0000
  10583 H         424.3656   95.3876   67.1859 H      1763        0    0.0000
  10584 H         424.9941   94.3406   65.9182 H      1763        0    0.0000
  10585 C         425.4102   93.6236   67.9387 C.3    1764        0    0.0000
  10586 C         424.1535   92.7554   68.0649 C.3    1764        0    0.0000
  10587 H         426.2657   93.0057   67.6388 H      1764        0    0.0000
  10588 H         425.6640   94.0618   68.9119 H      1764        0    0.0000
  10589 H         423.2995   93.3721   68.3715 H      1764        0    0.0000
  10590 H         423.8958   92.3227   67.0903 H      1764        0    0.0000
  10591 C         424.3356   91.5935   69.1014 C.3    1765        0    0.0000
  10592 C         423.0868   90.7119   69.2112 C.3    1765        0    0.0000
  10593 H         425.1996   90.9865   68.8038 H      1765        0    0.0000
  10594 H         424.5772   92.0271   70.0798 H      1765        0    0.0000
  10595 H         422.2252   91.3170   69.5197 H      1765        0    0.0000
  10596 H         422.8387   90.2873   68.2306 H      1765        0    0.0000
  10597 C         423.2746   89.5407   70.2361 C.3    1766        0    0.0000
  10598 C         422.0252   88.6599   70.3468 C.3    1766        0    0.0000
  10599 H         424.1356   88.9351   69.9271 H      1766        0    0.0000
  10600 H         423.5237   89.9652   71.2165 H      1766        0    0.0000
  10601 H         421.1662   89.2637   70.6646 H      1766        0    0.0000
  10602 H         421.7708   88.2426   69.3646 H      1766        0    0.0000
  10603 C         422.2174   87.4811   71.3622 C.3    1767        0    0.0000
  10604 C         420.9724   86.5931   71.4637 C.3    1767        0    0.0000
  10605 H         423.0820   86.8825   71.0495 H      1767        0    0.0000
  10606 H         422.4629   87.8987   72.3465 H      1767        0    0.0000
  10607 H         420.1102   87.1896   71.7865 H      1767        0    0.0000
  10608 H         420.7208   86.1837   70.4775 H      1767        0    0.0000
  10609 C         421.1698   85.4057   72.4682 C.3    1768        0    0.0000
  10610 C         419.9283   84.5121   72.5624 C.3    1768        0    0.0000
  10611 H         422.0364   84.8133   72.1494 H      1768        0    0.0000
  10612 H         421.4144   85.8153   73.4561 H      1768        0    0.0000
  10613 H         419.0634   85.1030   72.8885 H      1768        0    0.0000
  10614 H         419.6791   84.1087   71.5731 H      1768        0    0.0000
  10615 C         420.1294   83.3186   73.5587 C.3    1769        0    0.0000
  10616 C         418.8926   82.4175   73.6429 C.3    1769        0    0.0000
  10617 H         421.0002   82.7333   73.2381 H      1769        0    0.0000
  10618 H         420.3690   83.7223   74.5502 H      1769        0    0.0000
  10619 H         418.0241   83.0007   73.9735 H      1769        0    0.0000
  10620 H         418.6469   82.0220   72.6496 H      1769        0    0.0000
  10621 C         419.0990   81.2159   74.6283 C.3    1770        0    0.0000
  10622 C         417.8650   80.3104   74.7067 C.3    1770        0    0.0000
  10623 H         419.9709   80.6360   74.3011 H      1770        0    0.0000
  10624 H         419.3391   81.6115   75.6230 H      1770        0    0.0000
  10625 H         416.9951   80.8883   75.0424 H      1770        0    0.0000
  10626 H         417.6197   79.9218   73.7105 H      1770        0    0.0000
  10627 C         418.0759   79.1018   75.6825 C.3    1771        0    0.0000
  10628 C         416.8456   78.1906   75.7531 C.3    1771        0    0.0000
  10629 H         418.9503   78.5281   75.3511 H      1771        0    0.0000
  10630 H         418.3139   79.4904   76.6805 H      1771        0    0.0000
  10631 H         415.9737   78.7617   76.0956 H      1771        0    0.0000
  10632 H         416.6006   77.8112   74.7534 H      1771        0    0.0000
  10633 C         417.0623   76.9731   76.7166 C.3    1772        0    0.0000
  10634 C         415.8355   76.0567   76.7796 C.3    1772        0    0.0000
  10635 H         417.9384   76.4061   76.3783 H      1772        0    0.0000
  10636 H         417.3001   77.3527   77.7180 H      1772        0    0.0000
  10637 H         414.9619   76.6210   77.1290 H      1772        0    0.0000
  10638 H         415.5906   75.6864   75.7764 H      1772        0    0.0000
  10639 C         416.0582   74.8304   77.7304 C.3    1773        0    0.0000
  10640 C         414.8333   73.9111   77.7893 C.3    1773        0    0.0000
  10641 H         416.9340   74.2683   77.3833 H      1773        0    0.0000
  10642 H         416.2992   75.2007   78.7346 H      1773        0    0.0000
  10643 H         413.9597   74.4707   78.1462 H      1773        0    0.0000
  10644 H         414.5861   73.5489   76.7837 H      1773        0    0.0000
  10645 C         415.0612   72.6771   78.7290 C.3    1774        0    0.0000
  10646 C         413.8435   71.7475   78.7725 C.3    1774        0    0.0000
  10647 H         415.9432   72.1256   78.3807 H      1774        0    0.0000
  10648 H         415.2942   73.0393   79.7380 H      1774        0    0.0000
  10649 H         412.9637   72.2964   79.1307 H      1774        0    0.0000
  10650 H         413.6041   71.3936   77.7621 H      1774        0    0.0000
  10651 C         414.0768   70.5058   79.7006 C.3    1775        0    0.0000
  10652 C         412.8664   69.5662   79.7290 C.3    1775        0    0.0000
  10653 H         414.9649   69.9649   79.3510 H      1775        0    0.0000
  10654 H         414.3022   70.8595   80.7144 H      1775        0    0.0000
  10655 H         411.9820   70.1029   80.0941 H      1775        0    0.0000
  10656 H         412.6309   69.2254   78.7131 H      1775        0    0.0000
  10657 C         413.1083   68.3128   80.6390 C.3    1776        0    0.0000
  10658 C         411.9521   68.0724   81.6158 C.3    1776        0    0.0000
  10659 H         413.2492   67.4330   79.9990 H      1776        0    0.0000
  10660 H         414.0452   68.4532   81.1923 H      1776        0    0.0000
  10661 H         411.7767   68.9714   82.2197 H      1776        0    0.0000
  10662 H         411.0252   67.8795   81.0615 H      1776        0    0.0000
  10663 C         412.2271   66.8643   82.5762 C.3    1777        0    0.0000
  10664 C         411.3943   65.6306   82.2111 C.3    1777        0    0.0000
  10665 H         413.2962   66.6205   82.5406 H      1777        0    0.0000
  10666 H         412.0089   67.1742   83.6058 H      1777        0    0.0000
  10667 H         410.3248   65.8639   82.2835 H      1777        0    0.0000
  10668 H         411.5843   65.3434   81.1695 H      1777        0    0.0000
  10669 C         411.7082   64.4062   83.1382 C.3    1778        0    0.0000
  10670 C         412.0046   63.1329   82.3383 C.3    1778        0    0.0000
  10671 H         412.5640   64.6567   83.7772 H      1778        0    0.0000
  10672 H         410.8541   64.2404   83.8064 H      1778        0    0.0000
  10673 H         411.0663   62.6449   82.0467 H      1778        0    0.0000
  10674 H         412.5301   63.3860   81.4091 H      1778        0    0.0000
  10675 C         412.8749   62.1113   83.1486 C.3    1779        0    0.0000
  10676 C         412.0274   61.0075   83.7908 C.3    1779        0    0.0000
  10677 H         413.6202   61.6697   82.4755 H      1779        0    0.0000
  10678 H         413.4316   62.6558   83.9213 H      1779        0    0.0000
  10679 H         411.0522   61.4094   84.0926 H      1779        0    0.0000
  10680 H         411.8285   60.2131   83.0608 H      1779        0    0.0000
  10681 C         412.7245   60.3774   85.0457 C.3    1780        0    0.0000
  10682 C         412.0291   59.0942   85.5134 C.3    1780        0    0.0000
  10683 H         413.7733   60.1689   84.8001 H      1780        0    0.0000
  10684 H         412.7318   61.1178   85.8551 H      1780        0    0.0000
  10685 H         411.9669   58.3769   84.6856 H      1780        0    0.0000
  10686 H         412.6190   58.6132   86.3035 H      1780        0    0.0000
  10687 C         410.5837   59.3658   86.0562 C.3    1781        0    0.0000
  10688 C         409.9209   58.0970   86.6037 C.3    1781        0    0.0000
  10689 H         410.6386   60.1302   86.8412 H      1781        0    0.0000
  10690 H         409.9757   59.7886   85.2468 H      1781        0    0.0000
  10691 H         409.7499   58.1975   87.6827 H      1781        0    0.0000
  10692 H         408.9364   57.9569   86.1404 H      1781        0    0.0000
  10693 C         410.7871   56.8159   86.3467 C.3    1782        0    0.0000
  10694 C         410.1107   55.5432   86.8678 C.3    1782        0    0.0000
  10695 H         410.9764   56.7273   85.2697 H      1782        0    0.0000
  10696 H         411.7639   56.9471   86.8285 H      1782        0    0.0000
  10697 H         409.6846   55.7240   87.8625 H      1782        0    0.0000
  10698 H         409.2754   55.2660   86.2129 H      1782        0    0.0000
  10699 C         411.1058   54.3351   86.9563 C.3    1783        0    0.0000
  10700 C         410.4981   53.1346   87.6901 C.3    1783        0    0.0000
  10701 H         411.4009   54.0449   85.9403 H      1783        0    0.0000
  10702 H         412.0186   54.6656   87.4673 H      1783        0    0.0000
  10703 H         411.2937   52.4637   88.0370 H      1783        0    0.0000
  10704 H         409.9595   53.4732   88.5839 H      1783        0    0.0000
  10705 C         409.5111   52.3215   86.7834 C.3    1784        0    0.0000
  10706 C         408.7727   51.2282   87.5633 C.3    1784        0    0.0000
  10707 H         408.7899   53.0157   86.3346 H      1784        0    0.0000
  10708 H         410.0768   51.8762   85.9556 H      1784        0    0.0000
  10709 H         408.1086   51.6817   88.3095 H      1784        0    0.0000
  10710 H         408.1348   50.6479   86.8852 H      1784        0    0.0000
  10711 C         409.7575   50.2498   88.2917 C.3    1785        0    0.0000
  10712 C         409.0192   49.1515   89.0648 C.3    1785        0    0.0000
  10713 H         410.4257   49.8009   87.5463 H      1785        0    0.0000
  10714 H         410.3912   50.8294   88.9744 H      1785        0    0.0000
  10715 H         408.7217   49.5224   90.0534 H      1785        0    0.0000
  10716 H         408.0956   48.8780   88.5399 H      1785        0    0.0000
  10717 C         409.8949   47.8646   89.2505 C.3    1786        0    0.0000
  10718 C         409.1745   46.7844   90.0649 C.3    1786        0    0.0000
  10719 H         410.1631   47.4736   88.2612 H      1786        0    0.0000
  10720 H         410.8340   48.1440   89.7439 H      1786        0    0.0000
  10721 H         409.4871   46.8342   91.1153 H      1786        0    0.0000
  10722 H         408.0919   46.9611   90.0495 H      1786        0    0.0000
  10723 C         409.4587   45.3418   89.5210 C.3    1787        0    0.0000
  10724 C         408.7023   44.2652   90.3070 C.3    1787        0    0.0000
  10725 H         409.1773   45.3016   88.4614 H      1787        0    0.0000
  10726 H         410.5384   45.1528   89.5675 H      1787        0    0.0000
  10727 H         407.6854   44.6092   90.5329 H      1787        0    0.0000
  10728 H         408.6003   43.3577   89.6992 H      1787        0    0.0000
  10729 C         409.4207   43.8955   91.6504 C.3    1788        0    0.0000
  10730 C         408.7743   42.6903   92.3422 C.3    1788        0    0.0000
  10731 H         410.4771   43.6868   91.4406 H      1788        0    0.0000
  10732 H         409.3979   44.7678   92.3153 H      1788        0    0.0000
  10733 H         409.1949   42.5634   93.3474 H      1788        0    0.0000
  10734 H         407.6984   42.8625   92.4703 H      1788        0    0.0000
  10735 C         408.9808   41.3615   91.5365 C.3    1789        0    0.0000
  10736 C         408.4702   40.1343   92.2996 C.3    1789        0    0.0000
  10737 H         408.4628   41.4478   90.5733 H      1789        0    0.0000
  10738 H         410.0483   41.2469   91.3110 H      1789        0    0.0000
  10739 H         409.2266   39.3398   92.2835 H      1789        0    0.0000
  10740 H         408.3035   40.3892   93.3535 H      1789        0    0.0000
  10741 C         407.1356   39.5734   91.6981 C.3    1790        0    0.0000
  10742 C         406.7375   38.2304   92.3199 C.3    1790        0    0.0000
  10743 H         406.3393   40.3116   91.8551 H      1790        0    0.0000
  10744 H         407.2550   39.4649   90.6129 H      1790        0    0.0000
  10745 H         406.3158   37.5705   91.5517 H      1790        0    0.0000
  10746 H         407.6245   37.7229   92.7190 H      1790        0    0.0000
  10747 C         405.6891   38.3974   93.4735 C.3    1791        0    0.0000
  10748 C         405.6333   37.1700   94.3897 C.3    1791        0    0.0000
  10749 H         405.9444   39.2908   94.0567 H      1791        0    0.0000
  10750 H         404.7025   38.5815   93.0307 H      1791        0    0.0000
  10751 H         406.6128   37.0025   94.8544 H      1791        0    0.0000
  10752 H         404.9222   37.3428   95.2071 H      1791        0    0.0000
  10753 C         405.2112   35.8719   93.6189 C.3    1792        0    0.0000
  10754 C         405.9573   34.6304   94.1197 C.3    1792        0    0.0000
  10755 H         404.1289   35.7307   93.7301 H      1792        0    0.0000
  10756 H         405.4013   36.0187   92.5484 H      1792        0    0.0000
  10757 H         406.2102   33.9773   93.2752 H      1792        0    0.0000
  10758 H         406.9060   34.9241   94.5858 H      1792        0    0.0000
  10759 C         405.1166   33.8106   95.1582 C.3    1793        0    0.0000
  10760 C         405.7770   32.4744   95.5149 C.3    1793        0    0.0000
  10761 H         404.9828   34.4172   96.0625 H      1793        0    0.0000
  10762 H         404.1155   33.6369   94.7444 H      1793        0    0.0000
  10763 H         405.8242   31.8297   94.6285 H      1793        0    0.0000
  10764 H         406.8118   32.6408   95.8389 H      1793        0    0.0000
  10765 C         405.0078   31.7159   96.6509 C.3    1794        0    0.0000
  10766 C         405.1604   30.1949   96.5403 C.3    1794        0    0.0000
  10767 H         405.3813   32.0618   97.6227 H      1794        0    0.0000
  10768 H         403.9470   31.9919   96.6048 H      1794        0    0.0000
  10769 H         404.3141   29.6955   97.0279 H      1794        0    0.0000
  10770 H         405.1412   29.8905   95.4865 H      1794        0    0.0000
  10771 C         406.4919   29.6826   97.1900 C.3    1795        0    0.0000
  10772 C         406.8966   28.2986   96.6708 C.3    1795        0    0.0000
  10773 H         407.2880   30.4090   96.9845 H      1795        0    0.0000
  10774 H         406.3655   29.6536   98.2794 H      1795        0    0.0000
  10775 H         406.5060   28.1482   95.6567 H      1795        0    0.0000
  10776 H         407.9892   28.2276   96.6013 H      1795        0    0.0000
  10777 C         406.3727   27.1424   97.5908 C.3    1796        0    0.0000
  10778 C         406.5358   25.7639   96.9411 C.3    1796        0    0.0000
  10779 H         406.9150   27.1756   98.5439 H      1796        0    0.0000
  10780 H         405.3163   27.3263   97.8228 H      1796        0    0.0000
  10781 H         405.8318   25.6557   96.1066 H      1796        0    0.0000
  10782 H         407.5432   25.6641   96.5183 H      1796        0    0.0000
  10783 C         406.2967   24.5955   97.9585 C.3    1797        0    0.0000
  10784 C         406.5994   23.2227   97.3480 C.3    1797        0    0.0000
  10785 H         406.9259   24.7615   98.8417 H      1797        0    0.0000
  10786 H         405.2555   24.6332   98.3019 H      1797        0    0.0000
  10787 H         405.7857   22.9220   96.6764 H      1797        0    0.0000
  10788 H         407.5091   23.2749   96.7371 H      1797        0    0.0000
  10789 C         406.7878   22.1149   98.4411 C.3    1798        0    0.0000
  10790 C         406.6436   20.7014   97.8664 C.3    1798        0    0.0000
  10791 H         407.7770   22.2354   98.8998 H      1798        0    0.0000
  10792 H         406.0498   22.2744   99.2370 H      1798        0    0.0000
  10793 H         405.6322   20.5595   97.4658 H      1798        0    0.0000
  10794 H         407.3369   20.5639   97.0274 H      1798        0    0.0000
  10795 C         406.9224   19.5927   98.9391 C.3    1799        0    0.0000
  10796 C         406.9946   18.1920   98.3213 C.3    1799        0    0.0000
  10797 H         407.8632   19.8263   99.4527 H      1799        0    0.0000
  10798 H         406.1315   19.6286   99.6985 H      1799        0    0.0000
  10799 H         406.0190   17.9143   97.9035 H      1799        0    0.0000
  10800 H         407.7078   18.1847   97.4878 H      1799        0    0.0000
  10801 C         407.4256   17.1041   99.3645 C.3    1800        0    0.0000
  10802 C         407.1887   15.6799   98.8501 C.3    1800        0    0.0000
  10803 H         408.4866   17.2455   99.6050 H      1800        0    0.0000
  10804 H         406.8674   17.2656  100.2950 H      1800        0    0.0000
  10805 H         406.1124   15.4833   98.7693 H      1800        0    0.0000
  10806 H         407.6056   15.5701   97.8412 H      1800        0    0.0000
  10807 C         407.8316   14.5965   99.7830 C.3    1801        0    0.0000
  10808 C         407.5743   13.1714   99.2814 C.3    1801        0    0.0000
  10809 H         408.9107   14.7828   99.8498 H      1801        0    0.0000
  10810 H         407.4277   14.7175  100.7959 H      1801        0    0.0000
  10811 H         406.4975   12.9614   99.2808 H      1801        0    0.0000
  10812 H         407.9155   13.0705   98.2436 H      1801        0    0.0000
  10813 C         408.2989   12.0929  100.1586 C.3    1802        0    0.0000
  10814 C         408.0753   10.6708   99.6328 C.3    1802        0    0.0000
  10815 H         409.3718   12.3203  100.1838 H      1802        0    0.0000
  10816 H         407.9353   12.1740  101.1905 H      1802        0    0.0000
  10817 H         407.1406   10.6239   99.0605 H      1802        0    0.0000
  10818 H         408.8817   10.3939   98.9424 H      1802        0    0.0000
  10819 C         408.0139    9.6130  100.7882 C.3    1803        0    0.0000
  10820 C         408.2673    8.1877  100.2849 C.3    1803        0    0.0000
  10821 H         408.7554    9.8797  101.5516 H      1803        0    0.0000
  10822 H         407.0302    9.6725  101.2702 H      1803        0    0.0000
  10823 H         407.4997    7.9049   99.5539 H      1803        0    0.0000
  10824 H         409.2316    8.1385   99.7641 H      1803        0    0.0000
  10825 C         408.2676    7.1378  101.4490 C.3    1804        0    0.0000
  10826 C         408.5508    5.7168  100.9496 C.3    1804        0    0.0000
  10827 H         409.0200    7.4327  102.1909 H      1804        0    0.0000
  10828 H         407.2953    7.1716  101.9559 H      1804        0    0.0000
  10829 H         409.6106    5.6154  100.6845 H      1804        0    0.0000
  10830 H         408.3552    4.9911  101.7488 H      1804        0    0.0000
  10831 C         407.6797    5.3410   99.7016 C.3    1805        0    0.0000
  10832 C         407.8786    3.8833   99.2721 C.3    1805        0    0.0000
  10833 H         406.6242    5.5223   99.9396 H      1805        0    0.0000
  10834 H         407.9366    6.0151   98.8751 H      1805        0    0.0000
  10835 H         407.3091    3.2160   99.9307 H      1805        0    0.0000
  10836 H         407.4882    3.7333   98.2579 H      1805        0    0.0000
  10837 C         409.3866    3.4558   99.3013 C.3    1806        0    0.0000
  10838 C         409.5735    2.0193   99.8018 C.3    1806        0    0.0000
  10839 H         409.8032    3.5596   98.2917 H      1806        0    0.0000
  10840 H         409.9393    4.1528   99.9434 H      1806        0    0.0000
  10841 H         409.8221    2.0225  100.8703 H      1806        0    0.0000
  10842 H         408.6355    1.4598   99.6982 H      1806        0    0.0000
  10843 C         410.7028    1.2609   99.0226 C.3    1807        0    0.0000
  10844 C         410.7906   -0.2168   99.4195 C.3    1807        0    0.0000
  10845 H         410.5111    1.3505   97.9461 H      1807        0    0.0000
  10846 H         411.6609    1.7596   99.2146 H      1807        0    0.0000
  10847 H         410.9723   -0.3066  100.4977 H      1807        0    0.0000
  10848 H         409.8356   -0.7178   99.2182 H      1807        0    0.0000
  10849 C         411.9292   -0.9719   98.6507 C.3    1808        0    0.0000
  10850 C         411.9193   -2.4786   98.9314 C.3    1808        0    0.0000
  10851 H         411.8114   -0.7887   97.5755 H      1808        0    0.0000
  10852 H         412.8962   -0.5417   98.9394 H      1808        0    0.0000
  10853 H         411.1719   -2.9740   98.2994 H      1808        0    0.0000
  10854 H         412.8913   -2.9160   98.6715 H      1808        0    0.0000
  10855 C         411.6052   -2.8011  100.4329 C.3    1809        0    0.0000
  10856 C         411.4165   -4.3023  100.6773 C.3    1809        0    0.0000
  10857 H         412.4236   -2.4187  101.0554 H      1809        0    0.0000
  10858 H         410.7014   -2.2550  100.7303 H      1809        0    0.0000
  10859 H         410.8690   -4.4650  101.6140 H      1809        0    0.0000
  10860 H         410.8079   -4.7403   99.8765 H      1809        0    0.0000
  10861 C         412.7821   -5.0687  100.7508 C.3    1810        0    0.0000
  10862 C         412.6080   -6.5828  100.5891 C.3    1810        0    0.0000
  10863 H         413.4476   -4.6810   99.9694 H      1810        0    0.0000
  10864 H         413.2615   -4.8456  101.7120 H      1810        0    0.0000
  10865 H         413.1794   -7.1117  101.3619 H      1810        0    0.0000
  10866 H         411.5556   -6.8578  100.7319 H      1810        0    0.0000
  10867 C         413.0756   -7.0876   99.1806 C.3    1811        0    0.0000
  10868 C         413.5764   -8.5355   99.2194 C.3    1811        0    0.0000
  10869 H         412.2386   -6.9977   98.4771 H      1811        0    0.0000
  10870 H         413.8687   -6.4249   98.8129 H      1811        0    0.0000
  10871 H         414.4875   -8.6347   98.6165 H      1811        0    0.0000
  10872 H         413.8461   -8.8130  100.2459 H      1811        0    0.0000
  10873 C         412.5055   -9.5491   98.6869 C.3    1812        0    0.0000
  10874 C         412.9075  -11.0060   98.9414 C.3    1812        0    0.0000
  10875 H         411.5443   -9.3342   99.1699 H      1812        0    0.0000
  10876 H         412.3627   -9.3805   97.6123 H      1812        0    0.0000
  10877 H         413.0895  -11.1645  100.0116 H      1812        0    0.0000
  10878 H         412.0872  -11.6774   98.6585 H      1812        0    0.0000
  10879 C         414.1935  -11.4155   98.1441 C.3    1813        0    0.0000
  10880 C         414.7009  -12.8078   98.5354 C.3    1813        0    0.0000
  10881 H         413.9688  -11.3850   97.0707 H      1813        0    0.0000
  10882 H         414.9745  -10.6663   98.3238 H      1813        0    0.0000
  10883 H         415.2252  -12.7603   99.4979 H      1813        0    0.0000
  10884 H         413.8542  -13.4922   98.6714 H      1813        0    0.0000
  10885 C         415.6703  -13.4105   97.4610 C.3    1814        0    0.0000
  10886 C         416.1463  -14.8190   97.8332 C.3    1814        0    0.0000
  10887 H         415.1558  -13.4311   96.4923 H      1814        0    0.0000
  10888 H         416.5314  -12.7405   97.3462 H      1814        0    0.0000
  10889 H         416.6138  -14.8081   98.8256 H      1814        0    0.0000
  10890 H         415.2896  -15.5013   97.8961 H      1814        0    0.0000
  10891 C         417.1737  -15.3921   96.7971 C.3    1815        0    0.0000
  10892 C         417.3106  -16.9154   96.8965 C.3    1815        0    0.0000
  10893 H         416.8528  -15.1084   95.7870 H      1815        0    0.0000
  10894 H         418.1475  -14.9152   96.9638 H      1815        0    0.0000
  10895 H         416.3195  -17.3849   96.8669 H      1815        0    0.0000
  10896 H         417.8674  -17.3002   96.0331 H      1815        0    0.0000
  10897 C         418.0421  -17.3617   98.2092 C.3    1816        0    0.0000
  10898 C         418.0762  -18.8860   98.3656 C.3    1816        0    0.0000
  10899 H         419.0636  -16.9617   98.1982 H      1816        0    0.0000
  10900 H         417.5348  -16.9066   99.0689 H      1816        0    0.0000
  10901 H         418.1660  -19.1534   99.4258 H      1816        0    0.0000
  10902 H         417.1345  -19.3218   98.0095 H      1816        0    0.0000
  10903 C         419.2645  -19.5376   97.5777 C.3    1817        0    0.0000
  10904 C         419.2874  -21.0636   97.7185 C.3    1817        0    0.0000
  10905 H         419.1824  -19.2587   96.5198 H      1817        0    0.0000
  10906 H         420.2071  -19.1119   97.9435 H      1817        0    0.0000
  10907 H         418.9976  -21.3517   98.7367 H      1817        0    0.0000
  10908 H         418.5512  -21.5149   97.0419 H      1817        0    0.0000
  10909 C         420.6993  -21.6681   97.4049 C.3    1818        0    0.0000
  10910 C         420.6613  -23.1945   97.2724 C.3    1818        0    0.0000
  10911 H         421.0782  -21.2194   96.4782 H      1818        0    0.0000
  10912 H         421.3938  -21.3770   98.2027 H      1818        0    0.0000
  10913 H         421.5252  -23.6381   97.7828 H      1818        0    0.0000
  10914 H         419.7657  -23.5927   97.7652 H      1818        0    0.0000
  10915 C         420.6642  -23.6613   95.7759 C.3    1819        0    0.0000
  10916 C         420.8056  -25.1814   95.6418 C.3    1819        0    0.0000
  10917 H         419.7345  -23.3265   95.2993 H      1819        0    0.0000
  10918 H         421.4860  -23.1592   95.2505 H      1819        0    0.0000
  10919 H         419.9359  -25.6808   96.0865 H      1819        0    0.0000
  10920 H         420.8243  -25.4655   94.5823 H      1819        0    0.0000
  10921 C         422.1056  -25.7204   96.3324 C.3    1820        0    0.0000
  10922 C         422.4428  -27.1513   95.8994 C.3    1820        0    0.0000
  10923 H         422.9386  -25.0483   96.0915 H      1820        0    0.0000
  10924 H         421.9714  -25.6784   97.4204 H      1820        0    0.0000
  10925 H         421.9162  -27.3968   94.9688 H      1820        0    0.0000
  10926 H         423.5156  -27.2370   95.6862 H      1820        0    0.0000
  10927 C         422.0587  -28.2086   96.9912 C.3    1821        0    0.0000
  10928 C         422.3320  -29.6447   96.5308 C.3    1821        0    0.0000
  10929 H         422.6238  -27.9931   97.9065 H      1821        0    0.0000
  10930 H         420.9971  -28.0893   97.2410 H      1821        0    0.0000
  10931 H         422.9614  -30.1619   97.2655 H      1821        0    0.0000
  10932 H         421.3914  -30.2060   96.4711 H      1821        0    0.0000
  10933 C         423.0406  -29.6959   95.1334 C.3    1822        0    0.0000
  10934 C         423.3138  -31.1319   94.6729 C.3    1822        0    0.0000
  10935 H         422.4113  -29.1785   94.3987 H      1822        0    0.0000
  10936 H         423.9814  -29.1346   95.1932 H      1822        0    0.0000
  10937 H         422.6597  -31.8300   95.2099 H      1822        0    0.0000
  10938 H         423.0779  -31.2363   93.6065 H      1822        0    0.0000
  10939 C         424.8049  -31.5567   94.9045 C.3    1823        0    0.0000
  10940 C         425.0350  -33.0457   94.6236 C.3    1823        0    0.0000
  10941 H         425.4503  -30.9480   94.2591 H      1823        0    0.0000
  10942 H         425.0828  -31.3217   95.9394 H      1823        0    0.0000
  10943 H         425.7172  -33.4685   95.3715 H      1823        0    0.0000
  10944 H         424.0900  -33.5957   94.7126 H      1823        0    0.0000
  10945 C         425.6326  -33.2955   93.1961 C.3    1824        0    0.0000
  10946 C         426.2002  -34.7110   93.0435 C.3    1824        0    0.0000
  10947 H         424.8481  -33.1223   92.4490 H      1824        0    0.0000
  10948 H         426.4176  -32.5530   93.0064 H      1824        0    0.0000
  10949 H         427.1569  -34.6769   92.5077 H      1824        0    0.0000
  10950 H         426.4074  -35.1416   94.0311 H      1824        0    0.0000
  10951 C         425.2226  -35.6632   92.2721 C.3    1825        0    0.0000
  10952 C         425.6505  -37.1321   92.3625 C.3    1825        0    0.0000
  10953 H         424.2123  -35.5398   92.6816 H      1825        0    0.0000
  10954 H         425.1776  -35.3484   91.2221 H      1825        0    0.0000
  10955 H         425.3175  -37.5630   93.3148 H      1825        0    0.0000
  10956 H         425.1681  -37.7141   91.5675 H      1825        0    0.0000
  10957 C         427.2040  -37.3066   92.2448 C.3    1826        0    0.0000
  10958 C         427.6125  -38.7743   92.0775 C.3    1826        0    0.0000
  10959 H         427.5625  -36.7168   91.3921 H      1826        0    0.0000
  10960 H         427.6761  -36.8845   93.1406 H      1826        0    0.0000
  10961 H         427.6870  -39.2583   93.0591 H      1826        0    0.0000
  10962 H         426.8424  -39.3175   91.5159 H      1826        0    0.0000
  10963 C         428.9836  -38.9282   91.3330 C.3    1827        0    0.0000
  10964 C         429.3031  -40.3898   91.0005 C.3    1827        0    0.0000
  10965 H         428.9556  -38.3307   90.4134 H      1827        0    0.0000
  10966 H         429.7765  -38.5032   91.9608 H      1827        0    0.0000
  10967 H         428.3868  -40.9921   91.0335 H      1827        0    0.0000
  10968 H         429.6938  -40.4663   89.9782 H      1827        0    0.0000
  10969 C         430.3505  -41.0087   91.9893 C.3    1828        0    0.0000
  10970 C         430.8748  -42.3652   91.5057 C.3    1828        0    0.0000
  10971 H         431.1831  -40.3044   92.1087 H      1828        0    0.0000
  10972 H         429.8844  -41.1158   92.9766 H      1828        0    0.0000
  10973 H         430.7055  -42.4711   90.4269 H      1828        0    0.0000
  10974 H         431.9589  -42.4269   91.6620 H      1828        0    0.0000
  10975 C         430.1886  -43.5653   92.2449 C.3    1829        0    0.0000
  10976 C         430.5151  -44.9129   91.5922 C.3    1829        0    0.0000
  10977 H         430.5125  -43.5667   93.2931 H      1829        0    0.0000
  10978 H         429.1035  -43.4032   92.2507 H      1829        0    0.0000
  10979 H         430.7313  -45.6621   92.3639 H      1829        0    0.0000
  10980 H         429.6464  -45.2797   91.0316 H      1829        0    0.0000
  10981 C         431.7415  -44.8205   90.6200 C.3    1830        0    0.0000
  10982 C         431.9904  -46.1351   89.8724 C.3    1830        0    0.0000
  10983 H         431.5648  -44.0083   89.9041 H      1830        0    0.0000
  10984 H         432.6312  -44.5426   91.1986 H      1830        0    0.0000
  10985 H         431.5162  -46.9675   90.4070 H      1830        0    0.0000
  10986 H         431.5286  -46.0956   88.8780 H      1830        0    0.0000
  10987 C         433.5182  -46.4451   89.7080 C.3    1831        0    0.0000
  10988 C         433.7787  -47.9150   89.3609 C.3    1831        0    0.0000
  10989 H         433.9286  -45.7952   88.9251 H      1831        0    0.0000
  10990 H         434.0347  -46.1812   90.6392 H      1831        0    0.0000
  10991 H         434.6222  -48.2967   89.9494 H      1831        0    0.0000
  10992 H         432.9066  -48.5247   89.6280 H      1831        0    0.0000
  10993 C         434.0911  -48.1196   87.8384 C.3    1832        0    0.0000
  10994 C         434.6736  -49.5068   87.5463 C.3    1832        0    0.0000
  10995 H         433.1678  -47.9709   87.2649 H      1832        0    0.0000
  10996 H         434.7925  -47.3411   87.5136 H      1832        0    0.0000
  10997 H         434.8849  -49.6081   86.4746 H      1832        0    0.0000
  10998 H         435.6301  -49.6309   88.0691 H      1832        0    0.0000
  10999 C         433.7064  -50.6611   87.9820 C.3    1833        0    0.0000
  11000 C         434.3550  -52.0434   87.8497 C.3    1833        0    0.0000
  11001 H         433.3956  -50.4892   89.0199 H      1833        0    0.0000
  11002 H         432.7980  -50.6115   87.3688 H      1833        0    0.0000
  11003 H         434.5519  -52.4632   88.8439 H      1833        0    0.0000
  11004 H         433.6678  -52.7347   87.3462 H      1833        0    0.0000
  11005 C         435.7004  -51.9939   87.0465 C.3    1834        0    0.0000
  11006 C         436.2511  -53.3930   86.7491 C.3    1834        0    0.0000
  11007 H         435.5330  -51.4486   86.1095 H      1834        0    0.0000
  11008 H         436.4341  -51.4151   87.6211 H      1834        0    0.0000
  11009 H         436.7729  -53.7869   87.6301 H      1834        0    0.0000
  11010 H         435.4264  -54.0844   86.5361 H      1834        0    0.0000
  11011 C         437.2399  -53.3960   85.5327 C.3    1835        0    0.0000
  11012 C         437.7635  -54.8006   85.2133 C.3    1835        0    0.0000
  11013 H         436.7260  -52.9783   84.6582 H      1835        0    0.0000
  11014 H         438.0778  -52.7241   85.7565 H      1835        0    0.0000
  11015 H         437.0320  -55.5552   85.5276 H      1835        0    0.0000
  11016 H         437.8909  -54.9172   84.1299 H      1835        0    0.0000
  11017 C         439.1317  -55.0990   85.9179 C.3    1836        0    0.0000
  11018 C         439.7021  -56.4659   85.5237 C.3    1836        0    0.0000
  11019 H         439.8435  -54.3055   85.6586 H      1836        0    0.0000
  11020 H         438.9880  -55.0506   87.0044 H      1836        0    0.0000
  11021 H         439.1509  -56.8702   84.6656 H      1836        0    0.0000
  11022 H         440.7467  -56.3601   85.2056 H      1836        0    0.0000
  11023 C         439.6344  -57.4996   86.7003 C.3    1837        0    0.0000
  11024 C         439.9043  -58.9332   86.2302 C.3    1837        0    0.0000
  11025 H         440.3645  -57.2113   87.4667 H      1837        0    0.0000
  11026 H         438.6445  -57.4375   87.1690 H      1837        0    0.0000
  11027 H         440.5269  -59.4590   86.9647 H      1837        0    0.0000
  11028 H         438.9615  -59.4899   86.1603 H      1837        0    0.0000
  11029 C         440.6212  -58.9766   84.8368 C.3    1838        0    0.0000
  11030 C         440.6942  -60.3967   84.2650 C.3    1838        0    0.0000
  11031 H         440.0843  -58.3186   84.1423 H      1838        0    0.0000
  11032 H         441.6313  -58.5626   84.9458 H      1838        0    0.0000
  11033 H         440.5680  -61.1327   85.0687 H      1838        0    0.0000
  11034 H         439.8724  -60.5597   83.5568 H      1838        0    0.0000
  11035 C         442.0532  -60.6740   83.5346 C.3    1839        0    0.0000
  11036 C         442.3501  -62.1723   83.4091 C.3    1839        0    0.0000
  11037 H         442.0208  -60.2124   82.5400 H      1839        0    0.0000
  11038 H         442.8596  -60.1757   84.0870 H      1839        0    0.0000
  11039 H         441.9033  -62.7161   84.2507 H      1839        0    0.0000
  11040 H         441.8906  -62.5717   82.4965 H      1839        0    0.0000
  11041 C         443.8883  -62.4724   83.3733 C.3    1840        0    0.0000
  11042 C         444.1884  -63.9212   82.9733 C.3    1840        0    0.0000
  11043 H         444.3671  -61.7808   82.6690 H      1840        0    0.0000
  11044 H         444.3132  -62.2594   84.3620 H      1840        0    0.0000
  11045 H         445.0790  -64.2809   83.5033 H      1840        0    0.0000
  11046 H         443.3587  -64.5736   83.2725 H      1840        0    0.0000
  11047 C         444.4215  -64.0755   81.4308 C.3    1841        0    0.0000
  11048 C         444.9606  -65.4616   81.0607 C.3    1841        0    0.0000
  11049 H         443.4744  -63.8888   80.9096 H      1841        0    0.0000
  11050 H         445.1218  -63.2987   81.0996 H      1841        0    0.0000
  11051 H         445.7086  -65.3736   80.2631 H      1841        0    0.0000
  11052 H         445.4705  -65.9094   81.9227 H      1841        0    0.0000
  11053 C         443.8259  -66.4327   80.5843 C.3    1842        0    0.0000
  11054 C         444.2015  -67.9056   80.7807 C.3    1842        0    0.0000
  11055 H         442.9073  -66.2017   81.1379 H      1842        0    0.0000
  11056 H         443.6137  -66.2365   79.5260 H      1842        0    0.0000
  11057 H         444.7705  -68.0279   81.7107 H      1842        0    0.0000
  11058 H         443.2948  -68.5145   80.8838 H      1842        0    0.0000
  11059 C         445.0534  -68.4654   79.5898 C.3    1843        0    0.0000
  11060 C         446.2843  -69.2417   80.0706 C.3    1843        0    0.0000
  11061 H         444.4173  -69.1129   78.9737 H      1843        0    0.0000
  11062 H         445.3623  -67.6281   78.9518 H      1843        0    0.0000
  11063 H         446.9136  -68.5981   80.6978 H      1843        0    0.0000
  11064 H         445.9746  -70.0870   80.6976 H      1843        0    0.0000
  11065 C         447.1465  -69.7852   78.8795 C.3    1844        0    0.0000
  11066 C         448.1096  -70.8939   79.3181 C.3    1844        0    0.0000
  11067 H         446.4737  -70.1590   78.0977 H      1844        0    0.0000
  11068 H         447.7078  -68.9514   78.4400 H      1844        0    0.0000
  11069 H         448.4229  -70.7308   80.3568 H      1844        0    0.0000
  11070 H         447.6016  -71.8659   79.2913 H      1844        0    0.0000
  11071 C         449.3859  -70.9655   78.4107 C.3    1845        0    0.0000
  11072 C         449.8126  -72.4088   78.1214 C.3    1845        0    0.0000
  11073 H         449.1815  -70.4381   77.4707 H      1845        0    0.0000
  11074 H         450.2019  -70.4238   78.9048 H      1845        0    0.0000
  11075 H         450.9001  -72.4596   77.9860 H      1845        0    0.0000
  11076 H         449.5714  -73.0512   78.9774 H      1845        0    0.0000
  11077 C         449.1166  -72.9891   76.8422 C.3    1846        0    0.0000
  11078 C         449.7356  -74.3185   76.3966 C.3    1846        0    0.0000
  11079 H         448.0479  -73.1229   77.0510 H      1846        0    0.0000
  11080 H         449.1896  -72.2506   76.0342 H      1846        0    0.0000
  11081 H         449.5738  -75.0849   77.1647 H      1846        0    0.0000
  11082 H         449.2413  -74.6768   75.4851 H      1846        0    0.0000
  11083 C         451.2741  -74.1951   76.1221 C.3    1847        0    0.0000
  11084 C         451.9044  -75.5373   75.7345 C.3    1847        0    0.0000
  11085 H         451.4329  -73.4603   75.3231 H      1847        0    0.0000
  11086 H         451.7624  -73.7953   77.0194 H      1847        0    0.0000
  11087 H         451.1198  -76.2702   75.5093 H      1847        0    0.0000
  11088 H         452.5004  -75.4230   74.8205 H      1847        0    0.0000
  11089 C         452.8225  -76.1118   76.8678 C.3    1848        0    0.0000
  11090 C         453.1245  -77.6015   76.6713 C.3    1848        0    0.0000
  11091 H         453.7574  -75.5383   76.8904 H      1848        0    0.0000
  11092 H         452.3314  -75.9520   77.8357 H      1848        0    0.0000
  11093 H         454.0432  -77.8728   77.2062 H      1848        0    0.0000
  11094 H         452.3185  -78.2088   77.1016 H      1848        0    0.0000
  11095 C         453.2900  -77.9798   75.1590 C.3    1849        0    0.0000
  11096 C         453.7464  -79.4306   74.9698 C.3    1849        0    0.0000
  11097 H         452.3336  -77.8165   74.6470 H      1849        0    0.0000
  11098 H         454.0139  -77.2949   74.7004 H      1849        0    0.0000
  11099 H         454.2083  -79.8031   75.8925 H      1849        0    0.0000
  11100 H         452.8808  -80.0741   74.7687 H      1849        0    0.0000
  11101 C         454.7724  -79.5821   73.7943 C.3    1850        0    0.0000
  11102 C         455.6491  -80.8301   73.9457 C.3    1850        0    0.0000
  11103 H         454.2211  -79.6225   72.8467 H      1850        0    0.0000
  11104 H         455.4006  -78.6836   73.7552 H      1850        0    0.0000
  11105 H         456.6870  -80.5954   73.6786 H      1850        0    0.0000
  11106 H         455.6596  -81.1576   74.9927 H      1850        0    0.0000
  11107 C         455.1530  -82.0171   73.0499 C.3    1851        0    0.0000
  11108 C         456.2811  -82.9955   72.7050 C.3    1851        0    0.0000
  11109 H         454.3462  -82.5432   73.5751 H      1851        0    0.0000
  11110 H         454.7159  -81.6077   72.1307 H      1851        0    0.0000
  11111 H         456.1834  -83.3308   71.6650 H      1851        0    0.0000
  11112 H         457.2527  -82.4923   72.7839 H      1851        0    0.0000
  11113 C         456.2852  -84.2518   73.6426 C.3    1852        0    0.0000
  11114 C         457.5616  -85.0864   73.4900 C.3    1852        0    0.0000
  11115 H         456.1763  -83.9178   74.6819 H      1852        0    0.0000
  11116 H         455.4049  -84.8657   73.4152 H      1852        0    0.0000
  11117 H         458.3862  -84.4523   73.1412 H      1852        0    0.0000
  11118 H         457.8653  -85.4909   74.4634 H      1852        0    0.0000
  11119 C         457.3778  -86.2746   72.4841 C.3    1853        0    0.0000
  11120 C         458.7131  -86.9191   72.0962 C.3    1853        0    0.0000
  11121 H         456.7167  -87.0232   72.9381 H      1853        0    0.0000
  11122 H         456.8649  -85.9034   71.5881 H      1853        0    0.0000
  11123 H         459.4782  -86.6791   72.8449 H      1853        0    0.0000
  11124 H         458.6145  -88.0117   72.0856 H      1853        0    0.0000
  11125 C         459.2159  -86.4436   70.6895 C.3    1854        0    0.0000
  11126 C         460.4592  -87.2113   70.2271 C.3    1854        0    0.0000
  11127 H         458.4040  -86.5696   69.9626 H      1854        0    0.0000
  11128 H         459.4330  -85.3692   70.7363 H      1854        0    0.0000
  11129 H         461.1815  -86.5204   69.7749 H      1854        0    0.0000
  11130 H         460.9596  -87.6708   71.0885 H      1854        0    0.0000
  11131 C         460.1128  -88.3321   69.1871 C.3    1855        0    0.0000
  11132 C         461.1093  -89.4957   69.2336 C.3    1855        0    0.0000
  11133 H         459.0979  -88.6977   69.3863 H      1855        0    0.0000
  11134 H         460.0971  -87.8901   68.1831 H      1855        0    0.0000
  11135 H         461.6381  -89.4999   70.1947 H      1855        0    0.0000
  11136 H         460.5751  -90.4513   69.1637 H      1855        0    0.0000
  11137 C         462.1644  -89.4208   68.0766 C.3    1856        0    0.0000
  11138 C         462.9453  -90.7299   67.9170 C.3    1856        0    0.0000
  11139 H         461.6466  -89.1752   67.1412 H      1856        0    0.0000
  11140 H         462.8551  -88.5933   68.2810 H      1856        0    0.0000
  11141 H         462.2960  -91.5059   67.4929 H      1856        0    0.0000
  11142 H         463.7727  -90.5906   67.2103 H      1856        0    0.0000
  11143 C         463.5254  -91.2455   69.2791 C.3    1857        0    0.0000
  11144 C         463.8517  -92.7425   69.2420 C.3    1857        0    0.0000
  11145 H         464.4277  -90.6697   69.5197 H      1857        0    0.0000
  11146 H         462.7983  -91.0385   70.0741 H      1857        0    0.0000
  11147 H         463.9071  -93.1409   70.2626 H      1857        0    0.0000
  11148 H         463.0485  -93.2900   68.7333 H      1857        0    0.0000
  11149 C         465.2063  -93.0374   68.5102 C.3    1858        0    0.0000
  11150 C         465.2931  -94.4832   68.0090 C.3    1858        0    0.0000
  11151 H         465.3130  -92.3408   67.6694 H      1858        0    0.0000
  11152 H         466.0336  -92.8280   69.1997 H      1858        0    0.0000
  11153 H         464.7986  -95.1577   68.7190 H      1858        0    0.0000
  11154 H         464.7598  -94.5835   67.0556 H      1858        0    0.0000
  11155 C         466.7747  -94.9556   67.8113 C.3    1859        0    0.0000
  11156 C         466.8636  -96.2942   67.0701 C.3    1859        0    0.0000
  11157 H         467.3216  -94.1822   67.2580 H      1859        0    0.0000
  11158 H         467.2539  -95.0376   68.7948 H      1859        0    0.0000
  11159 H         467.6184  -96.9357   67.5415 H      1859        0    0.0000
  11160 H         465.9077  -96.8278   67.1413 H      1859        0    0.0000
  11161 C         467.2292  -96.1121   65.5567 C.3    1860        0    0.0000
  11162 C         468.1256  -97.2408   65.0358 C.3    1860        0    0.0000
  11163 H         466.3021  -96.0677   64.9718 H      1860        0    0.0000
  11164 H         467.7297  -95.1444   65.4277 H      1860        0    0.0000
  11165 H         468.8741  -96.8373   64.3425 H      1860        0    0.0000
  11166 H         468.6788  -97.6958   65.8667 H      1860        0    0.0000
  11167 C         467.3075  -98.3584   64.3015 C.3    1861        0    0.0000
  11168 C         468.0199  -99.7151   64.3325 C.3    1861        0    0.0000
  11169 H         466.3202  -98.4412   64.7726 H      1861        0    0.0000
  11170 H         467.1362  -98.0471   63.2636 H      1861        0    0.0000
  11171 H         468.3571  -99.9397   65.3520 H      1861        0    0.0000
  11172 H         467.3225 -100.5128   64.0484 H      1861        0    0.0000
  11173 C         469.2566  -99.7587   63.3701 C.3    1862        0    0.0000
  11174 C         470.1232 -101.0029   63.5940 C.3    1862        0    0.0000
  11175 H         468.8990  -99.7309   62.3333 H      1862        0    0.0000
  11176 H         469.8546  -98.8516   63.5215 H      1862        0    0.0000
  11177 H         470.3850 -101.0929   64.6555 H      1862        0    0.0000
  11178 H         469.5592 -101.9064   63.3309 H      1862        0    0.0000
  11179 C         471.4432 -100.9674   62.7491 C.3    1863        0    0.0000
  11180 C         472.1673 -102.3182   62.7459 C.3    1863        0    0.0000
  11181 H         471.1978 -100.6697   61.7221 H      1863        0    0.0000
  11182 H         472.1014 -100.1887   63.1541 H      1863        0    0.0000
  11183 H         472.2505 -102.7028   63.7700 H      1863        0    0.0000
  11184 H         471.5856 -103.0554   62.1787 H      1863        0    0.0000
  11185 C         473.6032 -102.2211   62.1245 C.3    1864        0    0.0000
  11186 C         474.1590 -103.5935   61.7290 C.3    1864        0    0.0000
  11187 H         473.5651 -101.5636   61.2471 H      1864        0    0.0000
  11188 H         474.2707 -101.7398   62.8500 H      1864        0    0.0000
  11189 H         474.0081 -103.7656   60.6561 H      1864        0    0.0000
  11190 H         475.2416 -103.6256   61.9040 H      1864        0    0.0000
  11191 C         473.4833 -104.7608   62.5280 C.3    1865        0    0.0000
  11192 C         473.9261 -106.1400   62.0272 C.3    1865        0    0.0000
  11193 H         473.7290 -104.6500   63.5914 H      1865        0    0.0000
  11194 H         472.3939 -104.6622   62.4445 H      1865        0    0.0000
  11195 H         475.0150 -106.2404   62.1152 H      1865        0    0.0000
  11196 H         473.4856 -106.9265   62.6524 H      1865        0    0.0000
  11197 C         473.5146 -106.3906   60.5354 C.3    1866        0    0.0000
  11198 C         474.4508 -107.3802   59.8330 C.3    1866        0    0.0000
  11199 H         472.4839 -106.7658   60.5111 H      1866        0    0.0000
  11200 H         473.5132 -105.4314   60.0030 H      1866        0    0.0000
  11201 H         474.4239 -108.3507   60.3437 H      1866        0    0.0000
  11202 H         474.1101 -107.5555   58.8050 H      1866        0    0.0000
  11203 C         475.9328 -106.8705   59.7941 C.3    1867        0    0.0000
  11204 C         476.8531 -107.8194   59.0185 C.3    1867        0    0.0000
  11205 H         475.9517 -105.8725   59.3389 H      1867        0    0.0000
  11206 H         476.2938 -106.7541   60.8235 H      1867        0    0.0000
  11207 H         476.2599 -108.4576   58.3520 H      1867        0    0.0000
  11208 H         477.5345 -107.2439   58.3797 H      1867        0    0.0000
  11209 C         477.7020 -108.7325   59.9689 C.3    1868        0    0.0000
  11210 C         478.5580 -109.7404   59.1941 C.3    1868        0    0.0000
  11211 H         478.3422 -108.0959   60.5921 H      1868        0    0.0000
  11212 H         477.0237 -109.2606   60.6506 H      1868        0    0.0000
  11213 H         478.6555 -109.4252   58.1478 H      1868        0    0.0000
  11214 H         479.5727 -109.7704   59.6100 H      1868        0    0.0000
  11215 C         477.9534 -111.1864   59.2319 C.3    1869        0    0.0000
  11216 C         478.6682 -112.1402   58.2684 C.3    1869        0    0.0000
  11217 H         478.0179 -111.5698   60.2577 H      1869        0    0.0000
  11218 H         476.8864 -111.1301   58.9831 H      1869        0    0.0000
  11219 H         478.6689 -113.1579   58.6781 H      1869        0    0.0000
  11220 H         478.1287 -112.1851   57.3142 H      1869        0    0.0000
  11221 C         480.1489 -111.7058   57.9918 C.3    1870        0    0.0000
  11222 C         480.8794 -112.6875   57.0690 C.3    1870        0    0.0000
  11223 H         480.1460 -110.7029   57.5473 H      1870        0    0.0000
  11224 H         480.6783 -111.6246   58.9492 H      1870        0    0.0000
  11225 H         480.2812 -112.8734   56.1684 H      1870        0    0.0000
  11226 H         481.8285 -112.2521   56.7324 H      1870        0    0.0000
  11227 C         481.1732 -114.0574   57.7721 C.3    1871        0    0.0000
  11228 C         481.8796 -115.0486   56.8407 C.3    1871        0    0.0000
  11229 H         481.7881 -113.8736   58.6618 H      1871        0    0.0000
  11230 H         480.2262 -114.4834   58.1262 H      1871        0    0.0000
  11231 H         481.6238 -116.0775   57.1227 H      1871        0    0.0000
  11232 H         481.5322 -114.9089   55.8095 H      1871        0    0.0000
  11233 C         483.4387 -114.8882   56.8748 C.3    1872        0    0.0000
  11234 C         484.1437 -115.8618   55.9240 C.3    1872        0    0.0000
  11235 H         483.6935 -113.8542   56.6113 H      1872        0    0.0000
  11236 H         483.7881 -115.0466   57.9025 H      1872        0    0.0000
  11237 H         484.0009 -115.5421   54.8843 H      1872        0    0.0000
  11238 H         485.2247 -115.8533   56.1105 H      1872        0    0.0000
  11239 C         483.6159 -117.3298   56.0782 C.3    1873        0    0.0000
  11240 C         484.0681 -118.2337   54.9260 C.3    1873        0    0.0000
  11241 H         483.9698 -117.7342   57.0347 H      1873        0    0.0000
  11242 H         482.5203 -117.3079   56.1315 H      1873        0    0.0000
  11243 H         483.6697 -119.2466   55.0639 H      1873        0    0.0000
  11244 H         483.6638 -117.8628   53.9760 H      1873        0    0.0000
  11245 C         485.6295 -118.3160   54.8131 C.3    1874        0    0.0000
  11246 C         486.0826 -119.0286   53.5340 C.3    1874        0    0.0000
  11247 H         486.0402 -117.2991   54.8428 H      1874        0    0.0000
  11248 H         486.0206 -118.8396   55.6941 H      1874        0    0.0000
  11249 H         485.3448 -119.7872   53.2446 H      1874        0    0.0000
  11250 H         486.1401 -118.3126   52.7048 H      1874        0    0.0000
  11251 C         487.4792 -119.7203   53.7022 C.3    1875        0    0.0000
  11252 C         487.8317 -120.6152   52.5090 C.3    1875        0    0.0000
  11253 H         488.2448 -118.9449   53.8300 H      1875        0    0.0000
  11254 H         487.4721 -120.3112   54.6265 H      1875        0    0.0000
  11255 H         487.1876 -121.5033   52.5017 H      1875        0    0.0000
  11256 H         487.6427 -120.0812   51.5695 H      1875        0    0.0000
  11257 C         489.3294 -121.0775   52.5349 C.3    1876        0    0.0000
  11258 C         489.6134 -122.1843   51.5136 C.3    1876        0    0.0000
  11259 H         489.9708 -120.2097   52.3373 H      1876        0    0.0000
  11260 H         489.5743 -121.4265   53.5458 H      1876        0    0.0000
  11261 H         488.9983 -122.0362   50.6174 H      1876        0    0.0000
  11262 H         490.6602 -122.1367   51.1886 H      1876        0    0.0000
  11263 C         489.3284 -123.6134   52.0915 C.3    1877        0    0.0000
  11264 C         490.1344 -124.7016   51.3739 C.3    1877        0    0.0000
  11265 H         489.5646 -123.6152   53.1629 H      1877        0    0.0000
  11266 H         488.2547 -123.8220   52.0053 H      1877        0    0.0000
  11267 H         489.8293 -125.6930   51.7311 H      1877        0    0.0000
  11268 H         489.9251 -124.6765   50.2973 H      1877        0    0.0000
  11269 C         491.6782 -124.5389   51.5923 C.3    1878        0    0.0000
  11270 C         492.4891 -125.5668   50.7956 C.3    1878        0    0.0000
  11271 H         491.9712 -123.5222   51.3023 H      1878        0    0.0000
  11272 H         491.8960 -124.6362   52.6631 H      1878        0    0.0000
  11273 H         493.1770 -126.1017   51.4621 H      1878        0    0.0000
  11274 H         491.8196 -126.3207   50.3631 H      1878        0    0.0000
  11275 C         493.3171 -124.9045   49.6409 C.3    1879        0    0.0000
  11276 C         494.0769 -125.9393   48.8036 C.3    1879        0    0.0000
  11277 H         492.6354 -124.3304   49.0013 H      1879        0    0.0000
  11278 H         494.0203 -124.1847   50.0780 H      1879        0    0.0000
  11279 H         495.0754 -125.5603   48.5528 H      1879        0    0.0000
  11280 H         494.2254 -126.8578   49.3849 H      1879        0    0.0000
  11281 C         493.3242 -126.2977   47.4760 C.3    1880        0    0.0000
  11282 C         493.5204 -127.7638   47.0746 C.3    1880        0    0.0000
  11283 H         492.2563 -126.0830   47.6060 H      1880        0    0.0000
  11284 H         493.6833 -125.6376   46.6767 H      1880        0    0.0000
  11285 H         492.8089 -128.4002   47.6152 H      1880        0    0.0000
  11286 H         493.3094 -127.8926   46.0058 H      1880        0    0.0000
  11287 C         494.9749 -128.2703   47.3672 C.3    1881        0    0.0000
  11288 C         495.3266 -129.5244   46.5596 C.3    1881        0    0.0000
  11289 H         495.6828 -127.4643   47.1379 H      1881        0    0.0000
  11290 H         495.0684 -128.4758   48.4408 H      1881        0    0.0000
  11291 H         494.7613 -130.3857   46.9367 H      1881        0    0.0000
  11292 H         495.0343 -129.3906   45.5107 H      1881        0    0.0000
  11293 C         496.8570 -129.8594   46.6187 C.3    1882        0    0.0000
  11294 C         497.2227 -131.0621   45.7420 C.3    1882        0    0.0000
  11295 H         497.4248 -128.9760   46.3014 H      1882        0    0.0000
  11296 H         497.1360 -130.0553   47.6615 H      1882        0    0.0000
  11297 H         496.9982 -131.9960   46.2719 H      1882        0    0.0000
  11298 H         496.6122 -131.0625   44.8304 H      1882        0    0.0000
  11299 C         498.7368 -131.0628   45.3360 C.3    1883        0    0.0000
  11300 C         499.2441 -132.4666   44.9878 C.3    1883        0    0.0000
  11301 H         498.8738 -130.3904   44.4800 H      1883        0    0.0000
  11302 H         499.3247 -130.6446   46.1624 H      1883        0    0.0000
  11303 H         499.4341 -133.0363   45.9059 H      1883        0    0.0000
  11304 H         498.4765 -133.0162   44.4292 H      1883        0    0.0000
  11305 C         500.5593 -132.4286   44.1355 C.3    1884        0    0.0000
  11306 C         501.0185 -133.8285   43.7134 C.3    1884        0    0.0000
  11307 H         500.3881 -131.8055   43.2489 H      1884        0    0.0000
  11308 H         501.3455 -131.9351   44.7203 H      1884        0    0.0000
  11309 H         501.5104 -134.3326   44.5545 H      1884        0    0.0000
  11310 H         500.1512 -134.4429   43.4416 H      1884        0    0.0000
  11311 C         502.0094 -133.7878   42.4993 C.3    1885        0    0.0000
  11312 C         502.4314 -135.1900   42.0467 C.3    1885        0    0.0000
  11313 H         501.5304 -133.2530   41.6698 H      1885        0    0.0000
  11314 H         502.8927 -133.2024   42.7832 H      1885        0    0.0000
  11315 H         501.7066 -135.9336   42.4007 H      1885        0    0.0000
  11316 H         502.4319 -135.2473   40.9511 H      1885        0    0.0000
  11317 C         503.8550 -135.5811   42.5738 C.3    1886        0    0.0000
  11318 C         504.2205 -137.0312   42.2384 C.3    1886        0    0.0000
  11319 H         504.5937 -134.8967   42.1383 H      1886        0    0.0000
  11320 H         503.8846 -135.4272   43.6596 H      1886        0    0.0000
  11321 H         503.5195 -137.7187   42.7281 H      1886        0    0.0000
  11322 H         504.1273 -137.2026   41.1588 H      1886        0    0.0000
  11323 C         505.6789 -137.3947   42.6838 C.3    1887        0    0.0000
  11324 C         506.1162 -138.7717   42.1723 C.3    1887        0    0.0000
  11325 H         506.3642 -136.6214   42.3152 H      1887        0    0.0000
  11326 H         505.7315 -137.3661   43.7792 H      1887        0    0.0000
  11327 H         506.8176 -139.2305   42.8802 H      1887        0    0.0000
  11328 H         505.2499 -139.4417   42.1082 H      1887        0    0.0000
  11329 C         506.7994 -138.6928   40.7636 C.3    1888        0    0.0000
  11330 C         507.1492 -140.0781   40.2092 C.3    1888        0    0.0000
  11331 H         506.1261 -138.1702   40.0729 H      1888        0    0.0000
  11332 H         507.7058 -138.0799   40.8440 H      1888        0    0.0000
  11333 H         507.7764 -140.6227   40.9258 H      1888        0    0.0000
  11334 H         506.2360 -140.6713   40.0755 H      1888        0    0.0000
  11335 C         507.9037 -139.9960   38.8376 C.3    1889        0    0.0000
  11336 C         508.3360 -141.3757   38.3289 C.3    1889        0    0.0000
  11337 H         507.2488 -139.5123   38.1022 H      1889        0    0.0000
  11338 H         508.7801 -139.3466   38.9543 H      1889        0    0.0000
  11339 H         507.7892 -142.1621   38.8639 H      1889        0    0.0000
  11340 H         508.0817 -141.4818   37.2670 H      1889        0    0.0000
  11341 C         509.8743 -141.6193   38.5069 C.3    1890        0    0.0000
  11342 C         510.2276 -143.1105   38.5284 C.3    1890        0    0.0000
  11343 H         510.4085 -141.1179   37.6903 H      1890        0    0.0000
  11344 H         510.2026 -141.1414   39.4382 H      1890        0    0.0000
  11345 H         509.7105 -143.6076   39.3585 H      1890        0    0.0000
  11346 H         509.8798 -143.5929   37.6065 H      1890        0    0.0000
  11347 C         511.7693 -143.3538   38.6753 C.3    1891        0    0.0000
  11348 C         512.1989 -144.7136   38.1139 C.3    1891        0    0.0000
  11349 H         512.3052 -142.5475   38.1593 H      1891        0    0.0000
  11350 H         512.0390 -143.2827   39.7364 H      1891        0    0.0000
  11351 H         512.9640 -145.1624   38.7594 H      1891        0    0.0000
  11352 H         511.3467 -145.4045   38.1082 H      1891        0    0.0000
  11353 C         512.7684 -144.6021   36.6576 C.3    1892        0    0.0000
  11354 C         513.5021 -145.8752   36.2218 C.3    1892        0    0.0000
  11355 H         511.9406 -144.3907   35.9694 H      1892        0    0.0000
  11356 H         513.4468 -143.7414   36.6082 H      1892        0    0.0000
  11357 H         514.1726 -146.2151   37.0208 H      1892        0    0.0000
  11358 H         512.7816 -146.6844   36.0496 H      1892        0    0.0000
  11359 C         514.3414 -145.6595   34.9154 C.3    1893        0    0.0000
  11360 C         514.9865 -146.9580   34.4184 C.3    1893        0    0.0000
  11361 H         513.6871 -145.2436   34.1394 H      1893        0    0.0000
  11362 H         515.1148 -144.9067   35.1123 H      1893        0    0.0000
  11363 H         514.2400 -147.5758   33.9038 H      1893        0    0.0000
  11364 H         515.7690 -146.7320   33.6835 H      1893        0    0.0000
  11365 C         515.6157 -147.7936   35.5859 C.3    1894        0    0.0000
  11366 C         516.1672 -149.1403   35.1047 C.3    1894        0    0.0000
  11367 H         516.4155 -147.2044   36.0514 H      1894        0    0.0000
  11368 H         514.8524 -147.9538   36.3575 H      1894        0    0.0000
  11369 H         515.4017 -149.6768   34.5306 H      1894        0    0.0000
  11370 H         517.0143 -148.9792   34.4265 H      1894        0    0.0000
  11371 C         516.6368 -150.0487   36.2929 C.3    1895        0    0.0000
  11372 C         517.4077 -151.2827   35.8111 C.3    1895        0    0.0000
  11373 H         517.2643 -149.4527   36.9671 H      1895        0    0.0000
  11374 H         515.7572 -150.3570   36.8714 H      1895        0    0.0000
  11375 H         517.2134 -152.1317   36.4781 H      1895        0    0.0000
  11376 H         517.0583 -151.5790   34.8142 H      1895        0    0.0000
  11377 C         518.9539 -151.0312   35.7506 C.3    1896        0    0.0000
  11378 C         519.6177 -151.7722   34.5847 C.3    1896        0    0.0000
  11379 H         519.1334 -149.9526   35.6618 H      1896        0    0.0000
  11380 H         519.4011 -151.3479   36.7010 H      1896        0    0.0000
  11381 H         519.3046 -152.8236   34.5802 H      1896        0    0.0000
  11382 H         519.2902 -151.3418   33.6302 H      1896        0    0.0000
  11383 C         521.1825 -151.7113   34.6559 C.3    1897        0    0.0000
  11384 C         521.8444 -152.3074   33.4086 C.3    1897        0    0.0000
  11385 H         521.4904 -150.6659   34.7818 H      1897        0    0.0000
  11386 H         521.5169 -152.2483   35.5522 H      1897        0    0.0000
  11387 H         521.8775 -151.5596   32.6066 H      1897        0    0.0000
  11388 H         522.8842 -152.5798   33.6284 H      1897        0    0.0000
  11389 C         521.0893 -153.5773   32.8847 C.3    1898        0    0.0000
  11390 C         521.8245 -154.2513   31.7208 C.3    1898        0    0.0000
  11391 H         520.9697 -154.2851   33.7143 H      1898        0    0.0000
  11392 H         520.0792 -153.2843   32.5723 H      1898        0    0.0000
  11393 H         522.0813 -153.5072   30.9568 H      1898        0    0.0000
  11394 H         522.7704 -154.6816   32.0722 H      1898        0    0.0000
  11395 C         520.9702 -155.3846   31.0552 C.3    1899        0    0.0000
  11396 C         521.8404 -156.4223   30.3374 C.3    1899        0    0.0000
  11397 H         520.3649 -155.8723   31.8294 H      1899        0    0.0000
  11398 H         520.2676 -154.9283   30.3470 H      1899        0    0.0000
  11399 H         521.2090 -157.2088   29.9058 H      1899        0    0.0000
  11400 H         522.3740 -155.9525   29.5018 H      1899        0    0.0000
  11401 C         522.8879 -157.0851   31.2969 C.3    1900        0    0.0000
  11402 C         523.9750 -157.8482   30.5322 C.3    1900        0    0.0000
  11403 H         523.3431 -156.3034   31.9177 H      1900        0    0.0000
  11404 H         522.3621 -157.7635   31.9801 H      1900        0    0.0000
  11405 H         524.3109 -158.7126   31.1184 H      1900        0    0.0000
  11406 H         523.5675 -158.2435   29.5933 H      1900        0    0.0000
  11407 C         525.2152 -156.9470   30.2048 C.3    1901        0    0.0000
  11408 C         526.2732 -157.6913   29.3827 C.3    1901        0    0.0000
  11409 H         524.8726 -156.0582   29.6606 H      1901        0    0.0000
  11410 H         525.6520 -156.5911   31.1461 H      1901        0    0.0000
  11411 H         525.9107 -157.8511   28.3596 H      1901        0    0.0000
  11412 H         527.1835 -157.0842   29.3032 H      1901        0    0.0000
  11413 C         526.6446 -159.0792   30.0097 C.3    1902        0    0.0000
  11414 C         527.4516 -159.9551   29.0451 C.3    1902        0    0.0000
  11415 H         527.2156 -158.9096   30.9310 H      1902        0    0.0000
  11416 H         525.7208 -159.5938   30.3019 H      1902        0    0.0000
  11417 H         527.0911 -160.9904   29.0859 H      1902        0    0.0000
  11418 H         527.3062 -159.6113   28.0135 H      1902        0    0.0000
  11419 C         528.9850 -159.9409   29.3710 C.3    1903        0    0.0000
  11420 C         529.8271 -160.5195   28.2285 C.3    1903        0    0.0000
  11421 H         529.2925 -158.9087   29.5796 H      1903        0    0.0000
  11422 H         529.1562 -160.5127   30.2914 H      1903        0    0.0000
  11423 H         529.4625 -161.5192   27.9616 H      1903        0    0.0000
  11424 H         529.7230 -159.8963   27.3317 H      1903        0    0.0000
  11425 C         531.3464 -160.6186   28.6016 C.3    1904        0    0.0000
  11426 C         532.1868 -161.2079   27.4633 C.3    1904        0    0.0000
  11427 H         531.7131 -159.6175   28.8605 H      1904        0    0.0000
  11428 H         531.4497 -161.2348   29.5033 H      1904        0    0.0000
  11429 H         532.0235 -160.6371   26.5408 H      1904        0    0.0000
  11430 H         533.2544 -161.1234   27.7012 H      1904        0    0.0000
  11431 C         531.8471 -162.7141   27.1924 C.3    1905        0    0.0000
  11432 C         532.5710 -163.2595   25.9563 C.3    1905        0    0.0000
  11433 H         532.1187 -163.3027   28.0775 H      1905        0    0.0000
  11434 H         530.7618 -162.8150   27.0678 H      1905        0    0.0000
  11435 H         532.0703 -164.1671   25.5971 H      1905        0    0.0000
  11436 H         532.5232 -162.5289   25.1395 H      1905        0    0.0000
  11437 C         534.0746 -163.5938   26.2478 C.3    1906        0    0.0000
  11438 C         534.7336 -164.3589   25.0948 C.3    1906        0    0.0000
  11439 H         534.6151 -162.6578   26.4356 H      1906        0    0.0000
  11440 H         534.1332 -164.1823   27.1718 H      1906        0    0.0000
  11441 H         534.1779 -165.2823   24.8899 H      1906        0    0.0000
  11442 H         534.6981 -163.7594   24.1767 H      1906        0    0.0000
  11443 C         536.2267 -164.7252   25.4015 C.3    1907        0    0.0000
  11444 C         536.8540 -165.5804   24.2950 C.3    1907        0    0.0000
  11445 H         536.7989 -163.7981   25.5304 H      1907        0    0.0000
  11446 H         536.2705 -165.2582   26.3594 H      1907        0    0.0000
  11447 H         536.0679 -166.0656   23.7034 H      1907        0    0.0000
  11448 H         537.4213 -164.9446   23.6041 H      1907        0    0.0000
  11449 C         537.8098 -166.6837   24.8667 C.3    1908        0    0.0000
  11450 C         538.4507 -167.5275   23.7594 C.3    1908        0    0.0000
  11451 H         538.5884 -166.1994   25.4690 H      1908        0    0.0000
  11452 H         537.2394 -167.3274   25.5477 H      1908        0    0.0000
  11453 H         537.6733 -168.0383   23.1779 H      1908        0    0.0000
  11454 H         538.9934 -166.8801   23.0595 H      1908        0    0.0000
  11455 C         539.4426 -168.5999   24.3284 C.3    1909        0    0.0000
  11456 C         540.1868 -169.3498   23.2180 C.3    1909        0    0.0000
  11457 H         540.1600 -168.1014   24.9918 H      1909        0    0.0000
  11458 H         538.8796 -169.3083   24.9487 H      1909        0    0.0000
  11459 H         540.3244 -170.4008   23.5009 H      1909        0    0.0000
  11460 H         539.5906 -169.3468   22.2972 H      1909        0    0.0000
  11461 C         541.5900 -168.7207   22.9135 C.3    1910        0    0.0000
  11462 C         542.2705 -169.3755   21.7063 C.3    1910        0    0.0000
  11463 H         541.4645 -167.6452   22.7369 H      1910        0    0.0000
  11464 H         542.2236 -168.8221   23.8032 H      1910        0    0.0000
  11465 H         542.3467 -170.4591   21.8594 H      1910        0    0.0000
  11466 H         541.6625 -169.2267   20.8052 H      1910        0    0.0000
  11467 C         543.7054 -168.7994   21.4485 C.3    1911        0    0.0000
  11468 C         544.4667 -169.5928   20.3807 C.3    1911        0    0.0000
  11469 H         543.6155 -167.7493   21.1439 H      1911        0    0.0000
  11470 H         544.2643 -168.8069   22.3924 H      1911        0    0.0000
  11471 H         543.9039 -169.5923   19.4390 H      1911        0    0.0000
  11472 H         545.4308 -169.1131   20.1717 H      1911        0    0.0000
  11473 C         544.7244 -171.0770   20.8144 C.3    1912        0    0.0000
  11474 C         545.2432 -171.9385   19.6577 C.3    1912        0    0.0000
  11475 H         545.4455 -171.0838   21.6412 H      1912        0    0.0000
  11476 H         543.7906 -171.4978   21.2074 H      1912        0    0.0000
  11477 H         544.5002 -171.9722   18.8512 H      1912        0    0.0000
  11478 H         546.1498 -171.4907   19.2323 H      1912        0    0.0000
  11479 C         545.5671 -173.4048   20.1078 C.3    1913        0    0.0000
  11480 C         546.2975 -174.1987   19.0189 C.3    1913        0    0.0000
  11481 H         546.1764 -173.3685   21.0194 H      1913        0    0.0000
  11482 H         544.6296 -173.9079   20.3752 H      1913        0    0.0000
  11483 H         545.7795 -175.1480   18.8342 H      1913        0    0.0000
  11484 H         546.2823 -173.6423   18.0736 H      1913        0    0.0000
  11485 C         547.7867 -174.5022   19.4029 C.3    1914        0    0.0000
  11486 C         548.6268 -174.9153   18.1893 C.3    1914        0    0.0000
  11487 H         548.2192 -173.6108   19.8738 H      1914        0    0.0000
  11488 H         547.8021 -175.2969   20.1591 H      1914        0    0.0000
  11489 H         548.1437 -175.7481   17.6634 H      1914        0    0.0000
  11490 H         548.6891 -174.0852   17.4748 H      1914        0    0.0000
  11491 C         550.0795 -175.3462   18.5913 C.3    1915        0    0.0000
  11492 C         550.8827 -175.8678   17.3946 C.3    1915        0    0.0000
  11493 H         550.5913 -174.4868   19.0420 H      1915        0    0.0000
  11494 H         550.0172 -176.1185   19.3679 H      1915        0    0.0000
  11495 H         550.2050 -176.2882   16.6413 H      1915        0    0.0000
  11496 H         551.4173 -175.0408   16.9111 H      1915        0    0.0000
  11497 C         551.9210 -176.9666   17.8096 C.3    1916        0    0.0000
  11498 C         552.6822 -177.5308   16.6049 C.3    1916        0    0.0000
  11499 H         552.6254 -176.5332   18.5304 H      1916        0    0.0000
  11500 H         551.3922 -177.7734   18.3320 H      1916        0    0.0000
  11501 H         551.9777 -177.9615   15.8828 H      1916        0    0.0000
  11502 H         553.2134 -176.7243   16.0843 H      1916        0    0.0000
  11503 C         553.7177 -178.6325   17.0194 C.3    1917        0    0.0000
  11504 C         554.5660 -179.1075   15.8346 C.3    1917        0    0.0000
  11505 H         554.3653 -178.2302   17.8083 H      1917        0    0.0000
  11506 H         553.1761 -179.4798   17.4580 H      1917        0    0.0000
  11507 H         554.0430 -179.9060   15.2937 H      1917        0    0.0000
  11508 H         554.7100 -178.2862   15.1218 H      1917        0    0.0000
  11509 C         555.9708 -179.6382   16.2845 C.3    1918        0    0.0000
  11510 C         556.8340 -180.0764   15.0964 C.3    1918        0    0.0000
  11511 H         556.4821 -178.8495   16.8504 H      1918        0    0.0000
  11512 H         555.8268 -180.4785   16.9751 H      1918        0    0.0000
  11513 H         556.3012 -180.8285   14.5014 H      1918        0    0.0000
  11514 H         557.0205 -179.2235   14.4321 H      1918        0    0.0000
  11515 C         558.2105 -180.6737   15.5504 C.3    1919        0    0.0000
  11516 C         559.0572 -181.1487   14.3643 C.3    1919        0    0.0000
  11517 H         558.7560 -179.9115   16.1205 H      1919        0    0.0000
  11518 H         558.0244 -181.5082   16.2378 H      1919        0    0.0000
  11519 H         559.4171 -180.2861   13.7898 H      1919        0    0.0000
  11520 H         559.9465 -181.6797   14.7257 H      1919        0    0.0000
  11521 C         558.2576 -182.0965   13.4053 C.3    1920        0    0.0000
  11522 C         559.0792 -182.5097   12.1792 C.3    1920        0    0.0000
  11523 H         557.9459 -182.9862   13.9665 H      1920        0    0.0000
  11524 H         557.3395 -181.5863   13.0885 H      1920        0    0.0000
  11525 H         558.4174 -182.9053   11.3989 H      1920        0    0.0000
  11526 H         559.5826 -181.6340   11.7512 H      1920        0    0.0000
  11527 C         560.1575 -183.5939   12.5246 C.3    1921        0    0.0000
  11528 C         561.4796 -183.3539   11.7873 C.3    1921        0    0.0000
  11529 H         560.3257 -183.5925   13.6087 H      1921        0    0.0000
  11530 H         559.7586 -184.5834   12.2690 H      1921        0    0.0000
  11531 H         561.4265 -183.7715   10.7743 H      1921        0    0.0000
  11532 H         561.6577 -182.2772   11.6753 H      1921        0    0.0000
  11533 C         562.7008 -183.9930   12.5341 C.3    1922        0    0.0000
  11534 C         563.9756 -183.9757   11.6835 C.3    1922        0    0.0000
  11535 H         562.8668 -183.4478   13.4715 H      1922        0    0.0000
  11536 H         562.4466 -185.0239   12.8099 H      1922        0    0.0000
  11537 H         563.8058 -183.4040   10.7627 H      1922        0    0.0000
  11538 H         564.7827 -183.4674   12.2255 H      1922        0    0.0000
  11539 C         564.4544 -185.4187   11.3012 C.3    1923        0    0.0000
  11540 C         565.8759 -185.4263   10.7281 C.3    1923        0    0.0000
  11541 H         564.4050 -186.0555   12.1931 H      1923        0    0.0000
  11542 H         563.7527 -185.8425   10.5722 H      1923        0    0.0000
  11543 H         565.8494 -185.2072    9.6535 H      1923        0    0.0000
  11544 H         566.4744 -184.6350   11.1963 H      1923        0    0.0000
  11545 C         566.5970 -186.8011   10.9460 C.3    1924        0    0.0000
  11546 C         567.7661 -187.0040    9.9758 C.3    1924        0    0.0000
  11547 H         566.9545 -186.8527   11.9818 H      1924        0    0.0000
  11548 H         565.8636 -187.6081   10.8252 H      1924        0    0.0000
  11549 H         567.4142 -187.4956    9.0603 H      1924        0    0.0000
  11550 H         568.1771 -186.0327    9.6737 H      1924        0    0.0000
  11551 C         568.9155 -187.8662   10.6025 C.3    1925        0    0.0000
  11552 C         570.0913 -188.0560    9.6379 C.3    1925        0    0.0000
  11553 H         569.2597 -187.3804   11.5240 H      1925        0    0.0000
  11554 H         568.5070 -188.8416   10.8943 H      1925        0    0.0000
  11555 H         569.7434 -188.5227    8.7080 H      1925        0    0.0000
  11556 H         570.5131 -187.0814    9.3626 H      1925        0    0.0000
  11557 C         571.2278 -188.9429   10.2537 C.3    1926        0    0.0000
  11558 C         572.3478 -189.2325    9.2482 C.3    1926        0    0.0000
  11559 H         571.6362 -188.4327   11.1349 H      1926        0    0.0000
  11560 H         570.7890 -189.8833   10.6093 H      1926        0    0.0000
  11561 H         572.7902 -188.2922    8.8967 H      1926        0    0.0000
  11562 H         573.1530 -189.7972    9.7343 H      1926        0    0.0000
  11563 C         571.8376 -190.0453    8.0086 C.3    1927        0    0.0000
  11564 C         572.9463 -190.2918    6.9794 C.3    1927        0    0.0000
  11565 H         571.4284 -191.0018    8.3570 H      1927        0    0.0000
  11566 H         571.0079 -189.4982    7.5441 H      1927        0    0.0000
  11567 H         572.5103 -190.6240    6.0292 H      1927        0    0.0000
  11568 H         573.4809 -189.3568    6.7711 H      1927        0    0.0000
  11569 C         573.9789 -191.3669    7.4646 C.3    1928        0    0.0000
  11570 C         575.3987 -191.0750    6.9664 C.3    1928        0    0.0000
  11571 H         573.9648 -191.4013    8.5611 H      1928        0    0.0000
  11572 H         573.6529 -192.3539    7.1141 H      1928        0    0.0000
  11573 H         575.4955 -190.0135    6.7068 H      1928        0    0.0000
  11574 H         576.1253 -191.2716    7.7646 H      1928        0    0.0000
  11575 C         575.7781 -191.9381    5.7140 C.3    1929        0    0.0000
  11576 C         577.2835 -192.2149    5.6336 C.3    1929        0    0.0000
  11577 H         575.2236 -192.8837    5.7550 H      1929        0    0.0000
  11578 H         575.4431 -191.4153    4.8096 H      1929        0    0.0000
  11579 H         577.7441 -192.0783    6.6199 H      1929        0    0.0000
  11580 H         577.4592 -193.2588    5.3456 H      1929        0    0.0000
  11581 C         578.0057 -191.2784    4.6046 C.3    1930        0    0.0000
  11582 C         579.5149 -191.5383    4.5423 C.3    1930        0    0.0000
  11583 H         577.5571 -191.4281    3.6148 H      1930        0    0.0000
  11584 H         577.8149 -190.2343    4.8823 H      1930        0    0.0000
  11585 H         579.9919 -190.8234    3.8605 H      1930        0    0.0000
  11586 H         579.9649 -191.3797    5.5302 H      1930        0    0.0000
  11587 C         579.8479 -192.9932    4.0630 C.3    1931        0    0.0000
  11588 C         581.2423 -193.4469    4.5091 C.3    1931        0    0.0000
  11589 H         579.0861 -193.6780    4.4558 H      1931        0    0.0000
  11590 H         579.7719 -193.0313    2.9692 H      1931        0    0.0000
  11591 H         581.8623 -192.5746    4.7507 H      1931        0    0.0000
  11592 H         581.1680 -194.0443    5.4262 H      1931        0    0.0000
  11593 C         581.9706 -194.2957    3.4107 C.3    1932        0    0.0000
  11594 C         583.3802 -194.7161    3.8411 C.3    1932        0    0.0000
  11595 H         581.3644 -195.1830    3.1897 H      1932        0    0.0000
  11596 H         582.0193 -193.7089    2.4849 H      1932        0    0.0000
  11597 H         583.7411 -194.0580    4.6413 H      1932        0    0.0000
  11598 H         583.3600 -195.7323    4.2539 H      1932        0    0.0000
  11599 C         584.4018 -194.6737    2.6528 C.3    1933        0    0.0000
  11600 C         585.7812 -195.2083    3.0533 C.3    1933        0    0.0000
  11601 H         583.9984 -195.2610    1.8186 H      1933        0    0.0000
  11602 H         584.4879 -193.6394    2.2973 H      1933        0    0.0000
  11603 H         586.2665 -194.5130    3.7495 H      1933        0    0.0000
  11604 H         585.6752 -196.1627    3.5838 H      1933        0    0.0000
  11605 C         586.7189 -195.4200    1.8149 C.3    1934        0    0.0000
  11606 C         588.0333 -196.1118    2.1930 C.3    1934        0    0.0000
  11607 H         586.1837 -196.0139    1.0636 H      1934        0    0.0000
  11608 H         586.9254 -194.4447    1.3569 H      1934        0    0.0000
  11609 H         588.4102 -195.7105    3.1419 H      1934        0    0.0000
  11610 H         587.8622 -197.1840    2.3501 H      1934        0    0.0000
  11611 C         589.1368 -195.9318    1.0943 C.3    1935        0    0.0000
  11612 C         590.4490 -196.6295    1.4692 C.3    1935        0    0.0000
  11613 H         588.7580 -196.3286    0.1443 H      1935        0    0.0000
  11614 H         589.3115 -194.8597    0.9407 H      1935        0    0.0000
  11615 H         590.8607 -196.1890    2.3857 H      1935        0    0.0000
  11616 H         590.2634 -197.6891    1.6847 H      1935        0    0.0000
  11617 C         591.5231 -196.5257    0.3320 C.3    1936        0    0.0000
  11618 C         592.7832 -197.3393    0.6471 C.3    1936        0    0.0000
  11619 H         591.0770 -196.8723   -0.6084 H      1936        0    0.0000
  11620 H         591.7835 -195.4699    0.1869 H      1936        0    0.0000
  11621 H         592.8585 -198.1953   -0.0350 H      1936        0    0.0000
  11622 H         593.6778 -196.7259    0.4828 H      1936        0    0.0000
  11623 C         592.7963 -197.8668    2.1232 C.3    1937        0    0.0000
  11624 C         594.0778 -198.6405    2.4522 C.3    1937        0    0.0000
  11625 H         592.6864 -197.0139    2.8045 H      1937        0    0.0000
  11626 H         591.9196 -198.5080    2.2773 H      1937        0    0.0000
  11627 H         593.9305 -199.2452    3.3556 H      1937        0    0.0000
  11628 H         594.3141 -199.3394    1.6402 H      1937        0    0.0000
  11629 C         595.3049 -197.6905    2.6743 C.3    1938        0    0.0000
  11630 C         596.6171 -198.3124    2.1840 C.3    1938        0    0.0000
  11631 H         595.1187 -196.7442    2.1514 H      1938        0    0.0000
  11632 H         595.3781 -197.4512    3.7424 H      1938        0    0.0000
  11633 H         597.4536 -197.9606    2.8005 H      1938        0    0.0000
  11634 H         596.5810 -199.4033    2.2951 H      1938        0    0.0000
  11635 C         596.9145 -197.9668    0.6841 C.3    1939        0    0.0000
  11636 C         598.1930 -198.6417    0.1750 C.3    1939        0    0.0000
  11637 H         596.0572 -198.2759    0.0733 H      1939        0    0.0000
  11638 H         596.9977 -196.8777    0.5820 H      1939        0    0.0000
  11639 H         598.8095 -197.9166   -0.3705 H      1939        0    0.0000
  11640 H         598.7953 -198.9935    1.0218 H      1939        0    0.0000
  11641 C         597.8884 -199.8566   -0.7678 C.3    1940        0    0.0000
  11642 C         599.1001 -200.7802   -0.9350 C.3    1940        0    0.0000
  11643 H         597.0406 -200.4189   -0.3574 H      1940        0    0.0000
  11644 H         597.5693 -199.4742   -1.7453 H      1940        0    0.0000
  11645 H         599.0135 -201.6402   -0.2593 H      1940        0    0.0000
  11646 H         599.1284 -201.1826   -1.9552 H      1940        0    0.0000
  11647 C         600.4531 -200.0437   -0.6446 C.3    1941        0    0.0000
  11648 C         601.6643 -200.9692   -0.8045 C.3    1941        0    0.0000
  11649 H         600.5422 -199.1869   -1.3239 H      1941        0    0.0000
  11650 H         600.4227 -199.6366    0.3736 H      1941        0    0.0000
  11651 H         601.5720 -201.8293   -0.1298 H      1941        0    0.0000
  11652 H         601.6984 -201.3713   -1.8247 H      1941        0    0.0000
  11653 C         603.0167 -200.2351   -0.5053 C.3    1942        0    0.0000
  11654 C         604.2343 -201.1205   -0.7928 C.3    1942        0    0.0000
  11655 H         603.0646 -199.3215   -1.1107 H      1942        0    0.0000
  11656 H         603.0219 -199.9177    0.5449 H      1942        0    0.0000
  11657 H         604.1573 -202.0597   -0.2312 H      1942        0    0.0000
  11658 H         604.2604 -201.3903   -1.8558 H      1942        0    0.0000
  11659 C         605.5831 -200.4159   -0.4169 C.3    1943        0    0.0000
  11660 C         606.8051 -201.2050   -0.9000 C.3    1943        0    0.0000
  11661 H         605.5895 -199.4090   -0.8523 H      1943        0    0.0000
  11662 H         605.6241 -200.2885    0.6720 H      1943        0    0.0000
  11663 H         606.8320 -202.1895   -0.4169 H      1943        0    0.0000
  11664 H         606.7333 -201.3857   -1.9797 H      1943        0    0.0000
  11665 C         608.1507 -200.4584   -0.6010 C.3    1944        0    0.0000
  11666 C         609.3754 -201.2752   -1.0275 C.3    1944        0    0.0000
  11667 H         608.1425 -199.4928   -1.1217 H      1944        0    0.0000
  11668 H         608.2012 -200.2371    0.4723 H      1944        0    0.0000
  11669 H         609.3168 -202.2874   -0.6087 H      1944        0    0.0000
  11670 H         609.3919 -201.3863   -2.1189 H      1944        0    0.0000
  11671 C         610.7201 -200.6145   -0.5664 C.3    1945        0    0.0000
  11672 C         611.9469 -201.3954   -1.0505 C.3    1945        0    0.0000
  11673 H         610.7562 -199.5852   -0.9444 H      1945        0    0.0000
  11674 H         610.7243 -200.5483    0.5286 H      1945        0    0.0000
  11675 H         612.5419 -200.7759   -1.7329 H      1945        0    0.0000
  11676 H         612.5959 -201.6407   -0.2007 H      1945        0    0.0000
  11677 C         611.5539 -202.7229   -1.7859 C.3    1946        0    0.0000
  11678 C         612.7634 -203.4106   -2.4289 C.3    1946        0    0.0000
  11679 H         611.0763 -203.3984   -1.0653 H      1946        0    0.0000
  11680 H         610.8009 -202.4942   -2.5502 H      1946        0    0.0000
  11681 H         612.4348 -204.0581   -3.2512 H      1946        0    0.0000
  11682 H         613.4336 -202.6607   -2.8669 H      1946        0    0.0000
  11683 C         613.5732 -204.2725   -1.3999 C.3    1947        0    0.0000
  11684 C         615.0808 -204.2402   -1.6745 C.3    1947        0    0.0000
  11685 H         613.3672 -203.9015   -0.3883 H      1947        0    0.0000
  11686 H         613.2061 -205.3056   -1.4376 H      1947        0    0.0000
  11687 H         615.3952 -203.2201   -1.9279 H      1947        0    0.0000
  11688 H         615.6339 -204.5249   -0.7708 H      1947        0    0.0000
  11689 C         615.4927 -205.2009   -2.8427 C.3    1948        0    0.0000
  11690 C         616.8687 -204.8542   -3.4221 C.3    1948        0    0.0000
  11691 H         615.4906 -206.2325   -2.4696 H      1948        0    0.0000
  11692 H         614.7295 -205.1488   -3.6291 H      1948        0    0.0000
  11693 H         617.3526 -205.7594   -3.8094 H      1948        0    0.0000
  11694 H         616.7574 -204.1686   -4.2713 H      1948        0    0.0000
  11695 C         617.8115 -204.1927   -2.3587 C.3    1949        0    0.0000
  11696 C         619.2728 -204.1580   -2.8196 C.3    1949        0    0.0000
  11697 H         617.4567 -203.1745   -2.1563 H      1949        0    0.0000
  11698 H         617.7272 -204.7487   -1.4167 H      1949        0    0.0000
  11699 H         619.5695 -205.1418   -3.2037 H      1949        0    0.0000
  11700 H         619.3892 -203.4482   -3.6479 H      1949        0    0.0000
  11701 C         620.2507 -203.7508   -1.6641 C.3    1950        0    0.0000
  11702 C         621.7216 -203.9115   -2.0641 C.3    1950        0    0.0000
  11703 H         620.0496 -202.7102   -1.3808 H      1950        0    0.0000
  11704 H         620.0314 -204.3654   -0.7822 H      1950        0    0.0000
  11705 H         622.2931 -203.0259   -1.7597 H      1950        0    0.0000
  11706 H         622.1630 -204.7673   -1.5384 H      1950        0    0.0000
  11707 C         621.8980 -204.1208   -3.6076 C.3    1951        0    0.0000
  11708 C         623.3536 -204.4078   -3.9922 C.3    1951        0    0.0000
  11709 H         621.2540 -204.9492   -3.9281 H      1951        0    0.0000
  11710 H         621.5409 -203.2242   -4.1292 H      1951        0    0.0000
  11711 H         623.5178 -204.1666   -5.0498 H      1951        0    0.0000
  11712 H         624.0292 -203.7652   -3.4140 H      1951        0    0.0000
  11713 C         623.7485 -205.9052   -3.7483 C.3    1952        0    0.0000
  11714 C         625.2505 -206.0759   -3.4952 C.3    1952        0    0.0000
  11715 H         623.1772 -206.2867   -2.8930 H      1952        0    0.0000
  11716 H         623.4442 -206.4977   -4.6200 H      1952        0    0.0000
  11717 H         625.5350 -205.5698   -2.5643 H      1952        0    0.0000
  11718 H         625.4913 -207.1379   -3.3627 H      1952        0    0.0000
  11719 C         626.1194 -205.5032   -4.6676 C.3    1953        0    0.0000
  11720 C         627.6075 -205.4339   -4.3076 C.3    1953        0    0.0000
  11721 H         625.9758 -206.1329   -5.5544 H      1953        0    0.0000
  11722 H         625.7483 -204.5040   -4.9273 H      1953        0    0.0000
  11723 H         627.8401 -204.4620   -3.8549 H      1953        0    0.0000
  11724 H         627.8488 -206.1968   -3.5570 H      1953        0    0.0000
  11725 C         628.5313 -205.6438   -5.5565 C.3    1954        0    0.0000
  11726 C         630.0042 -205.8131   -5.1678 C.3    1954        0    0.0000
  11727 H         628.1843 -206.5260   -6.1087 H      1954        0    0.0000
  11728 H         628.4163 -204.7854   -6.2298 H      1954        0    0.0000
  11729 H         630.0833 -206.1154   -4.1161 H      1954        0    0.0000
  11730 H         630.4600 -206.6153   -5.7614 H      1954        0    0.0000
  11731 C         630.8295 -204.4971   -5.3788 C.3    1955        0    0.0000
  11732 C         632.3130 -204.6814   -5.0410 C.3    1955        0    0.0000
  11733 H         630.7183 -204.1733   -6.4210 H      1955        0    0.0000
  11734 H         630.3972 -203.7049   -4.7549 H      1955        0    0.0000
  11735 H         632.5536 -205.7496   -4.9734 H      1955        0    0.0000
  11736 H         632.9359 -204.2685   -5.8443 H      1955        0    0.0000
  11737 C         632.7054 -203.9886   -3.6906 C.3    1956        0    0.0000
  11738 C         634.1462 -204.3036   -3.2733 C.3    1956        0    0.0000
  11739 H         632.5733 -202.9048   -3.7977 H      1956        0    0.0000
  11740 H         632.0077 -204.3155   -2.9097 H      1956        0    0.0000
  11741 H         634.6661 -203.3801   -2.9897 H      1956        0    0.0000
  11742 H         634.1484 -204.9510   -2.3876 H      1956        0    0.0000
  11743 C         634.9552 -205.0083   -4.4164 C.3    1957        0    0.0000
  11744 C         636.2671 -205.6173   -3.9091 C.3    1957        0    0.0000
  11745 H         634.3273 -205.7879   -4.8650 H      1957        0    0.0000
  11746 H         635.1613 -204.2760   -5.2068 H      1957        0    0.0000
  11747 H         636.9468 -204.8228   -3.5769 H      1957        0    0.0000
  11748 H         636.0740 -206.2523   -3.0357 H      1957        0    0.0000
  11749 C         636.9883 -206.4732   -5.0067 C.3    1958        0    0.0000
  11750 C         638.4783 -206.6682   -4.7053 C.3    1958        0    0.0000
  11751 H         636.4888 -207.4471   -5.0804 H      1958        0    0.0000
  11752 H         636.8625 -205.9803   -5.9787 H      1958        0    0.0000
  11753 H         638.7006 -206.3431   -3.6813 H      1958        0    0.0000
  11754 H         638.7372 -207.7328   -4.7610 H      1958        0    0.0000
  11755 C         639.3943 -205.8727   -5.6980 C.3    1959        0    0.0000
  11756 C         640.8829 -206.0312   -5.3687 C.3    1959        0    0.0000
  11757 H         639.1957 -206.2215   -6.7191 H      1959        0    0.0000
  11758 H         639.1130 -204.8128   -5.6668 H      1959        0    0.0000
  11759 H         641.0208 -206.8232   -4.6222 H      1959        0    0.0000
  11760 H         641.4350 -206.3426   -6.2641 H      1959        0    0.0000
  11761 C         641.5146 -204.7051   -4.8212 C.3    1960        0    0.0000
  11762 C         643.0465 -204.7541   -4.8071 C.3    1960        0    0.0000
  11763 H         641.1708 -203.8675   -5.4406 H      1960        0    0.0000
  11764 H         641.1348 -204.5244   -3.8080 H      1960        0    0.0000
  11765 H         643.4097 -205.3967   -5.6187 H      1960        0    0.0000
  11766 H         643.4565 -203.7531   -4.9903 H      1960        0    0.0000
  11767 C         643.6113 -205.2904   -3.4467 C.3    1961        0    0.0000
  11768 C         645.0441 -205.8181   -3.5802 C.3    1961        0    0.0000
  11769 H         643.5757 -204.4821   -2.7058 H      1961        0    0.0000
  11770 H         642.9507 -206.0849   -3.0781 H      1961        0    0.0000
  11771 H         645.5052 -205.9093   -2.5889 H      1961        0    0.0000
  11772 H         645.0351 -206.8244   -4.0172 H      1961        0    0.0000
  11773 C         645.9391 -204.8886   -4.4703 C.3    1962        0    0.0000
  11774 C         647.2571 -205.5610   -4.8702 C.3    1962        0    0.0000
  11775 H         645.3735 -204.6065   -5.3670 H      1962        0    0.0000
  11776 H         646.1417 -203.9610   -3.9208 H      1962        0    0.0000
  11777 H         647.1683 -206.6501   -4.7729 H      1962        0    0.0000
  11778 H         647.4791 -205.3560   -5.9248 H      1962        0    0.0000
  11779 C         648.4628 -205.0721   -3.9958 C.3    1963        0    0.0000
  11780 C         649.8033 -205.6222   -4.4952 C.3    1963        0    0.0000
  11781 H         648.4811 -203.9752   -4.0004 H      1963        0    0.0000
  11782 H         648.2935 -205.3800   -2.9564 H      1963        0    0.0000
  11783 H         649.8369 -206.7105   -4.3608 H      1963        0    0.0000
  11784 H         649.9098 -205.4343   -5.5708 H      1963        0    0.0000
  11785 C         651.0237 -204.9828   -3.7473 C.3    1964        0    0.0000
  11786 C         652.3626 -205.3647   -4.3881 C.3    1964        0    0.0000
  11787 H         650.9052 -203.8923   -3.7452 H      1964        0    0.0000
  11788 H         651.0035 -205.3041   -2.6985 H      1964        0    0.0000
  11789 H         652.2678 -205.3728   -5.4811 H      1964        0    0.0000
  11790 H         653.1243 -204.6140   -4.1436 H      1964        0    0.0000
  11791 C         652.8685 -206.7707   -3.9143 C.3    1965        0    0.0000
  11792 C         654.3273 -207.0263   -4.3087 C.3    1965        0    0.0000
  11793 H         652.7559 -206.8385   -2.8252 H      1965        0    0.0000
  11794 H         652.2209 -207.5437   -4.3467 H      1965        0    0.0000
  11795 H         654.5669 -208.0908   -4.1944 H      1965        0    0.0000
  11796 H         654.4794 -206.7810   -5.3671 H      1965        0    0.0000
  11797 C         655.3317 -206.1868   -3.4461 C.3    1966        0    0.0000
  11798 C         656.7099 -206.0721   -4.1067 C.3    1966        0    0.0000
  11799 H         654.9084 -205.1879   -3.2828 H      1966        0    0.0000
  11800 H         655.4259 -206.6544   -2.4581 H      1966        0    0.0000
  11801 H         656.9193 -206.9716   -4.6988 H      1966        0    0.0000
  11802 H         656.7233 -205.2255   -4.8045 H      1966        0    0.0000
  11803 C         657.8579 -205.8796   -3.0567 C.3    1967        0    0.0000
  11804 C         659.2490 -206.0212   -3.6845 C.3    1967        0    0.0000
  11805 H         657.7526 -204.8901   -2.5949 H      1967        0    0.0000
  11806 H         657.7305 -206.6169   -2.2543 H      1967        0    0.0000
  11807 H         659.8795 -206.6664   -3.0602 H      1967        0    0.0000
  11808 H         659.1717 -206.5088   -4.6641 H      1967        0    0.0000
  11809 C         659.9634 -204.6374   -3.8638 C.3    1968        0    0.0000
  11810 C         661.4372 -204.7910   -4.2556 C.3    1968        0    0.0000
  11811 H         659.4291 -204.0600   -4.6284 H      1968        0    0.0000
  11812 H         659.8802 -204.0724   -2.9270 H      1968        0    0.0000
  11813 H         661.8686 -203.8098   -4.4891 H      1968        0    0.0000
  11814 H         662.0107 -205.1947   -3.4120 H      1968        0    0.0000
  11815 C         661.6276 -205.7340   -5.4934 C.3    1969        0    0.0000
  11816 C         663.1060 -205.9733   -5.8193 C.3    1969        0    0.0000
  11817 H         661.1277 -206.6893   -5.2904 H      1969        0    0.0000
  11818 H         661.1189 -205.2898   -6.3580 H      1969        0    0.0000
  11819 H         663.2873 -205.8064   -6.8883 H      1969        0    0.0000
  11820 H         663.7319 -205.2536   -5.2774 H      1969        0    0.0000
  11821 C         663.5686 -207.4246   -5.4490 C.3    1970        0    0.0000
  11822 C         664.9375 -207.4398   -4.7597 C.3    1970        0    0.0000
  11823 H         662.8138 -207.8806   -4.7964 H      1970        0    0.0000
  11824 H         663.6013 -208.0295   -6.3636 H      1970        0    0.0000
  11825 H         664.8361 -207.1212   -3.7149 H      1970        0    0.0000
  11826 H         665.3375 -208.4612   -4.7403 H      1970        0    0.0000
  11827 C         665.9731 -206.5051   -5.4747 C.3    1971        0    0.0000
  11828 C         667.2905 -206.3970   -4.6989 C.3    1971        0    0.0000
  11829 H         666.1614 -206.8925   -6.4837 H      1971        0    0.0000
  11830 H         665.5261 -205.5107   -5.5974 H      1971        0    0.0000
  11831 H         667.1193 -205.9041   -3.7338 H      1971        0    0.0000
  11832 H         667.6794 -207.3984   -4.4766 H      1971        0    0.0000
  11833 C         668.3813 -205.5952   -5.4892 C.3    1972        0    0.0000
  11834 C         669.6522 -205.3730   -4.6618 C.3    1972        0    0.0000
  11835 H         668.6227 -206.1401   -6.4103 H      1972        0    0.0000
  11836 H         667.9584 -204.6304   -5.7955 H      1972        0    0.0000
  11837 H         669.4673 -204.6233   -3.8824 H      1972        0    0.0000
  11838 H         669.9327 -206.3002   -4.1469 H      1972        0    0.0000
  11839 C         670.8593 -204.8991   -5.5426 C.3    1973        0    0.0000
  11840 C         672.1943 -204.9883   -4.7949 C.3    1973        0    0.0000
  11841 H         670.8958 -205.5119   -6.4518 H      1973        0    0.0000
  11842 H         670.6774 -203.8666   -5.8657 H      1973        0    0.0000
  11843 H         672.2267 -204.2410   -3.9925 H      1973        0    0.0000
  11844 H         672.2918 -205.9701   -4.3152 H      1973        0    0.0000
  11845 C         673.4224 -204.7650   -5.7433 C.3    1974        0    0.0000
  11846 C         674.7407 -204.6518   -4.9696 C.3    1974        0    0.0000
  11847 H         673.4748 -205.5974   -6.4559 H      1974        0    0.0000
  11848 H         673.2531 -203.8556   -6.3330 H      1974        0    0.0000
  11849 H         674.7382 -203.7446   -4.3529 H      1974        0    0.0000
  11850 H         674.8474 -205.5000   -4.2820 H      1974        0    0.0000
  11851 C         675.9863 -204.6127   -5.9208 C.3    1975        0    0.0000
  11852 C         677.3088 -204.6796   -5.1490 C.3    1975        0    0.0000
  11853 H         675.9193 -205.4507   -6.6257 H      1975        0    0.0000
  11854 H         675.9457 -203.6939   -6.5189 H      1975        0    0.0000
  11855 H         677.5089 -203.7173   -4.6617 H      1975        0    0.0000
  11856 H         677.2410 -205.4290   -4.3507 H      1975        0    0.0000
  11857 C         678.5206 -205.0378   -6.0768 C.3    1976        0    0.0000
  11858 C         679.8652 -204.6501   -5.4517 C.3    1976        0    0.0000
  11859 H         678.4995 -206.1144   -6.2860 H      1976        0    0.0000
  11860 H         678.3920 -204.5271   -7.0392 H      1976        0    0.0000
  11861 H         680.6398 -205.3671   -5.7507 H      1976        0    0.0000
  11862 H         680.1840 -203.6685   -5.8239 H      1976        0    0.0000
  11863 C         679.8001 -204.6001   -3.8862 C.3    1977        0    0.0000
  11864 C         681.1152 -204.1160   -3.2654 C.3    1977        0    0.0000
  11865 H         678.9773 -203.9389   -3.5874 H      1977        0    0.0000
  11866 H         679.5526 -205.6006   -3.5105 H      1977        0    0.0000
  11867 H         681.7263 -203.6119   -4.0242 H      1977        0    0.0000
  11868 H         680.9112 -203.3754   -2.4822 H      1977        0    0.0000
  11869 C         681.9474 -205.2910   -2.6454 C.3    1978        0    0.0000
  11870 C         683.4567 -205.0328   -2.7131 C.3    1978        0    0.0000
  11871 H         681.6365 -205.4330   -1.6029 H      1978        0    0.0000
  11872 H         681.7002 -206.2183   -3.1769 H      1978        0    0.0000
  11873 H         683.6575 -203.9564   -2.6453 H      1978        0    0.0000
  11874 H         683.9572 -205.5013   -1.8567 H      1978        0    0.0000
  11875 C         684.0949 -205.5836   -4.0347 C.3    1979        0    0.0000
  11876 C         685.5150 -205.0524   -4.2594 C.3    1979        0    0.0000
  11877 H         684.1057 -206.6798   -3.9921 H      1979        0    0.0000
  11878 H         683.4520 -205.3075   -4.8797 H      1979        0    0.0000
  11879 H         685.9514 -204.7307   -3.3057 H      1979        0    0.0000
  11880 H         686.1587 -205.8518   -4.6468 H      1979        0    0.0000
  11881 C         685.5469 -203.8475   -5.2617 C.3    1980        0    0.0000
  11882 C         686.7798 -202.9589   -5.0627 C.3    1980        0    0.0000
  11883 H         685.5270 -204.2392   -6.2863 H      1980        0    0.0000
  11884 H         684.6321 -203.2559   -5.1327 H      1980        0    0.0000
  11885 H         687.0615 -202.4882   -6.0128 H      1980        0    0.0000
  11886 H         686.5483 -202.1453   -4.3643 H      1980        0    0.0000
  11887 C         688.0087 -203.7624   -4.5131 C.3    1981        0    0.0000
  11888 C         689.1897 -202.8502   -4.1634 C.3    1981        0    0.0000
  11889 H         687.6941 -204.3270   -3.6266 H      1981        0    0.0000
  11890 H         688.3134 -204.5007   -5.2651 H      1981        0    0.0000
  11891 H         689.7601 -202.6095   -5.0691 H      1981        0    0.0000
  11892 H         688.8231 -201.8983   -3.7597 H      1981        0    0.0000
  11893 C         690.1560 -203.5044   -3.1166 C.3    1982        0    0.0000
  11894 C         691.5609 -202.8932   -3.1616 C.3    1982        0    0.0000
  11895 H         689.7255 -203.3844   -2.1147 H      1982        0    0.0000
  11896 H         690.2087 -204.5830   -3.3098 H      1982        0    0.0000
  11897 H         691.5124 -201.8670   -3.5464 H      1982        0    0.0000
  11898 H         691.9764 -202.8304   -2.1482 H      1982        0    0.0000
  11899 C         692.5416 -203.7237   -4.0594 C.3    1983        0    0.0000
  11900 C         693.9603 -203.1437   -4.0604 C.3    1983        0    0.0000
  11901 H         692.5590 -204.7598   -3.6993 H      1983        0    0.0000
  11902 H         692.1462 -203.7522   -5.0823 H      1983        0    0.0000
  11903 H         694.6423 -203.8190   -4.5918 H      1983        0    0.0000
  11904 H         693.9763 -202.1897   -4.6018 H      1983        0    0.0000
  11905 C         694.5080 -202.9110   -2.6101 C.3    1984        0    0.0000
  11906 C         695.8821 -202.2321   -2.6101 C.3    1984        0    0.0000
  11907 H         693.7866 -202.3001   -2.0535 H      1984        0    0.0000
  11908 H         694.5661 -203.8777   -2.0947 H      1984        0    0.0000
  11909 H         695.8059 -201.2286   -2.1736 H      1984        0    0.0000
  11910 H         696.5808 -202.7972   -1.9807 H      1984        0    0.0000
  11911 C         696.4852 -202.1115   -4.0520 C.3    1985        0    0.0000
  11912 C         697.9426 -201.6373   -4.0343 C.3    1985        0    0.0000
  11913 H         696.4132 -203.0873   -4.5482 H      1985        0    0.0000
  11914 H         695.8701 -201.4153   -4.6355 H      1985        0    0.0000
  11915 H         698.0427 -200.7533   -3.3924 H      1985        0    0.0000
  11916 H         698.5858 -202.4143   -3.6030 H      1985        0    0.0000
  11917 C         698.4696 -201.2832   -5.4676 C.3    1986        0    0.0000
  11918 C         699.9773 -201.0078   -5.4805 C.3    1986        0    0.0000
  11919 H         698.2329 -202.1121   -6.1461 H      1986        0    0.0000
  11920 H         697.9240 -200.4068   -5.8384 H      1986        0    0.0000
  11921 H         700.5066 -201.8349   -5.9696 H      1986        0    0.0000
  11922 H         700.1899 -200.1062   -6.0683 H      1986        0    0.0000
  11923 C         700.5591 -200.8188   -4.0371 C.3    1987        0    0.0000
  11924 C         702.0768 -201.0270   -3.9908 C.3    1987        0    0.0000
  11925 H         700.3066 -199.8116   -3.6831 H      1987        0    0.0000
  11926 H         700.0618 -201.5245   -3.3602 H      1987        0    0.0000
  11927 H         702.3551 -201.9014   -4.5922 H      1987        0    0.0000
  11928 H         702.5886 -200.1639   -4.4341 H      1987        0    0.0000
  11929 C         702.6042 -201.2309   -2.5286 C.3    1988        0    0.0000
  11930 C         704.1346 -201.1945   -2.4528 C.3    1988        0    0.0000
  11931 H         702.1771 -200.4504   -1.8867 H      1988        0    0.0000
  11932 H         702.2314 -202.1902   -2.1488 H      1988        0    0.0000
  11933 H         704.4672 -201.4552   -1.4404 H      1988        0    0.0000
  11934 H         704.5627 -201.9455   -3.1283 H      1988        0    0.0000
  11935 C         704.7148 -199.7875   -2.8286 C.3    1989        0    0.0000
  11936 C         706.2474 -199.7748   -2.8380 C.3    1989        0    0.0000
  11937 H         704.3303 -199.4984   -3.8145 H      1989        0    0.0000
  11938 H         704.3369 -199.0466   -2.1133 H      1989        0    0.0000
  11939 H         706.6335 -200.3763   -2.0058 H      1989        0    0.0000
  11940 H         706.6217 -200.2359   -3.7604 H      1989        0    0.0000
  11941 C         706.8301 -198.3239   -2.7259 C.3    1990        0    0.0000
  11942 C         708.3602 -198.3177   -2.6361 C.3    1990        0    0.0000
  11943 H         706.5021 -197.7428   -3.5967 H      1990        0    0.0000
  11944 H         706.3995 -197.8371   -1.8420 H      1990        0    0.0000
  11945 H         708.7782 -197.6346   -3.3858 H      1990        0    0.0000
  11946 H         708.6780 -197.9420   -1.6555 H      1990        0    0.0000
  11947 C         708.9738 -199.7437   -2.8540 C.3    1991        0    0.0000
  11948 C         710.5052 -199.7148   -2.9094 C.3    1991        0    0.0000
  11949 H         708.6392 -200.4006   -2.0415 H      1991        0    0.0000
  11950 H         708.5716 -200.1634   -3.7843 H      1991        0    0.0000
  11951 H         710.8442 -198.8516   -3.4956 H      1991        0    0.0000
  11952 H         710.9159 -199.5907   -1.8997 H      1991        0    0.0000
  11953 C         711.1016 -201.0199   -3.5406 C.3    1992        0    0.0000
  11954 C         712.6247 -200.9465   -3.6959 C.3    1992        0    0.0000
  11955 H         710.8286 -201.8747   -2.9096 H      1992        0    0.0000
  11956 H         710.6316 -201.1868   -4.5177 H      1992        0    0.0000
  11957 H         713.0331 -201.9487   -3.8756 H      1992        0    0.0000
  11958 H         712.8847 -200.3387   -4.5714 H      1992        0    0.0000
  11959 C         713.3220 -200.3359   -2.4316 C.3    1993        0    0.0000
  11960 C         714.4534 -199.3705   -2.8018 C.3    1993        0    0.0000
  11961 H         712.5674 -199.8171   -1.8276 H      1993        0    0.0000
  11962 H         713.7125 -201.1538   -1.8135 H      1993        0    0.0000
  11963 H         715.4046 -199.9131   -2.8671 H      1993        0    0.0000
  11964 H         714.2692 -198.9373   -3.7927 H      1993        0    0.0000
  11965 C         714.6057 -198.2071   -1.7621 C.3    1994        0    0.0000
  11966 C         715.9577 -197.4951   -1.8812 C.3    1994        0    0.0000
  11967 H         713.7886 -197.4904   -1.9113 H      1994        0    0.0000
  11968 H         714.4844 -198.6175   -0.7520 H      1994        0    0.0000
  11969 H         716.3613 -197.6210   -2.8934 H      1994        0    0.0000
  11970 H         715.8300 -196.4167   -1.7248 H      1994        0    0.0000
  11971 C         717.0063 -198.0346   -0.8483 C.3    1995        0    0.0000
  11972 C         718.4486 -197.8369   -1.3276 C.3    1995        0    0.0000
  11973 H         716.8548 -197.5222    0.1098 H      1995        0    0.0000
  11974 H         716.8117 -199.0995   -0.6703 H      1995        0    0.0000
  11975 H         718.7355 -198.6523   -2.0034 H      1995        0    0.0000
  11976 H         718.5293 -196.9070   -1.9040 H      1995        0    0.0000
  11977 C         719.4681 -197.7841   -0.1380 C.3    1996        0    0.0000
  11978 C         720.8767 -197.3914   -0.5972 C.3    1996        0    0.0000
  11979 H         719.1030 -197.0688    0.6092 H      1996        0    0.0000
  11980 H         719.4921 -198.7659    0.3510 H      1996        0    0.0000
  11981 H         720.8263 -196.8687   -1.5604 H      1996        0    0.0000
  11982 H         721.3238 -196.6904    0.1186 H      1996        0    0.0000
  11983 C         721.8213 -198.6337   -0.7451 C.3    1997        0    0.0000
  11984 C         723.0287 -198.3418   -1.6429 C.3    1997        0    0.0000
  11985 H         722.1597 -198.9413    0.2521 H      1997        0    0.0000
  11986 H         721.2426 -199.4713   -1.1536 H      1997        0    0.0000
  11987 H         723.7939 -199.1162   -1.5077 H      1997        0    0.0000
  11988 H         722.7297 -198.3751   -2.6979 H      1997        0    0.0000
  11989 C         723.6677 -196.9421   -1.3428 C.3    1998        0    0.0000
  11990 C         724.9404 -196.6972   -2.1610 C.3    1998        0    0.0000
  11991 H         722.9268 -196.1619   -1.5570 H      1998        0    0.0000
  11992 H         723.8916 -196.8782   -0.2708 H      1998        0    0.0000
  11993 H         724.9913 -197.4043   -2.9982 H      1998        0    0.0000
  11994 H         724.9184 -195.6915   -2.5989 H      1998        0    0.0000
  11995 C         726.2398 -196.8434   -1.2964 C.3    1999        0    0.0000
  11996 C         727.3671 -195.9256   -1.7821 C.3    1999        0    0.0000
  11997 H         725.9959 -196.6186   -0.2507 H      1999        0    0.0000
  11998 H         726.5679 -197.8898   -1.3254 H      1999        0    0.0000
  11999 H         727.8715 -196.3745   -2.6469 H      1999        0    0.0000
  12000 H         726.9528 -194.9680   -2.1212 H      1999        0    0.0000
  12001 C         728.4308 -195.6485   -0.6645 C.3    2000        0    0.0000
  12002 C         729.8331 -195.4222   -1.2404 C.3    2000        0    0.0000
  12003 H         728.1157 -194.7712   -0.0860 H      2000        0    0.0000
  12004 H         728.4423 -196.4968    0.0310 H      2000        0    0.0000
  12005 H         730.2777 -196.3807   -1.5354 H      2000        0    0.0000
  12006 H         729.7723 -194.8102   -2.1489 H      2000        0    0.0000
  12007 C         730.7883 -194.7153   -0.2180 C.3    2001        0    0.0000
  12008 C         732.2316 -194.6392   -0.7283 C.3    2001        0    0.0000
  12009 H         730.4068 -193.7067   -0.0167 H      2001        0    0.0000
  12010 H         730.7540 -195.2608    0.7333 H      2001        0    0.0000
  12011 H         732.3931 -195.3886   -1.5131 H      2001        0    0.0000
  12012 H         732.4177 -193.6593   -1.1853 H      2001        0    0.0000
  12013 C         733.2790 -194.8707    0.4148 C.3    2002        0    0.0000
  12014 C         734.7166 -194.6234   -0.0558 C.3    2002        0    0.0000
  12015 H         733.0386 -194.2069    1.2544 H      2002        0    0.0000
  12016 H         733.1761 -195.8979    0.7859 H      2002        0    0.0000
  12017 H         735.0832 -195.4918   -0.6171 H      2002        0    0.0000
  12018 H         734.7456 -193.7689   -0.7431 H      2002        0    0.0000
  12019 C         735.6930 -194.3447    1.1385 C.3    2003        0    0.0000
  12020 C         737.0357 -193.7732    0.6698 C.3    2003        0    0.0000
  12021 H         735.2101 -193.6480    1.8349 H      2003        0    0.0000
  12022 H         735.8539 -195.2798    1.6893 H      2003        0    0.0000
  12023 H         736.8827 -192.7987    0.1897 H      2003        0    0.0000
  12024 H         737.6923 -193.6002    1.5315 H      2003        0    0.0000
  12025 C         737.7665 -194.7246   -0.3394 C.3    2004        0    0.0000
  12026 C         739.0626 -194.1115   -0.8811 C.3    2004        0    0.0000
  12027 H         737.9816 -195.6755    0.1636 H      2004        0    0.0000
  12028 H         737.0839 -194.9534   -1.1672 H      2004        0    0.0000
  12029 H         739.5103 -194.7780   -1.6286 H      2004        0    0.0000
  12030 H         738.8461 -193.1652   -1.3921 H      2004        0    0.0000
  12031 C         740.1127 -193.8452    0.2520 C.3    2005        0    0.0000
  12032 C         741.4435 -193.3230   -0.3005 C.3    2005        0    0.0000
  12033 H         739.6911 -193.1232    0.9622 H      2005        0    0.0000
  12034 H         740.2759 -194.7762    0.8087 H      2005        0    0.0000
  12035 H         741.7211 -193.8815   -1.2031 H      2005        0    0.0000
  12036 H         741.3405 -192.2724   -0.5994 H      2005        0    0.0000
  12037 C         742.6070 -193.4395    0.7436 C.3    2006        0    0.0000
  12038 C         743.9745 -193.1250    0.1270 C.3    2006        0    0.0000
  12039 H         742.4039 -192.7556    1.5771 H      2006        0    0.0000
  12040 H         742.6070 -194.4539    1.1613 H      2006        0    0.0000
  12041 H         744.7263 -193.8322    0.4989 H      2006        0    0.0000
  12042 H         743.9342 -193.2516   -0.9619 H      2006        0    0.0000
  12043 C         744.4500 -191.6663    0.4489 C.3    2007        0    0.0000
  12044 C         745.9574 -191.4868    0.2370 C.3    2007        0    0.0000
  12045 H         743.8948 -190.9651   -0.1864 H      2007        0    0.0000
  12046 H         744.1851 -191.4289    1.4866 H      2007        0    0.0000
  12047 H         746.1828 -190.4376    0.0092 H      2007        0    0.0000
  12048 H         746.4987 -191.7323    1.1591 H      2007        0    0.0000
  12049 C         746.5051 -192.3852   -0.9250 C.3    2008        0    0.0000
  12050 C         747.9862 -192.1194   -1.2160 C.3    2008        0    0.0000
  12051 H         746.3577 -193.4388   -0.6570 H      2008        0    0.0000
  12052 H         745.9061 -192.2024   -1.8257 H      2008        0    0.0000
  12053 H         748.1851 -192.2334   -2.2889 H      2008        0    0.0000
  12054 H         748.2407 -191.0842   -0.9568 H      2008        0    0.0000
  12055 C         748.9306 -193.0861   -0.4216 C.3    2009        0    0.0000
  12056 C         750.2355 -192.4038    0.0037 C.3    2009        0    0.0000
  12057 H         748.3952 -193.4572    0.4611 H      2009        0    0.0000
  12058 H         749.1497 -193.9599   -1.0476 H      2009        0    0.0000
  12059 H         750.8796 -193.1189    0.5302 H      2009        0    0.0000
  12060 H         750.7918 -192.0712   -0.8815 H      2009        0    0.0000
  12061 C         749.9838 -191.1689    0.9359 C.3    2010        0    0.0000
  12062 C         751.2906 -190.5299    1.4190 C.3    2010        0    0.0000
  12063 H         749.3833 -190.4305    0.3903 H      2010        0    0.0000
  12064 H         749.3826 -191.4911    1.7951 H      2010        0    0.0000
  12065 H         751.2463 -190.3555    2.5012 H      2010        0    0.0000
  12066 H         752.1307 -191.2134    1.2440 H      2010        0    0.0000
  12067 C         751.5880 -189.1692    0.6997 C.3    2011        0    0.0000
  12068 C         753.0905 -188.8911    0.5809 C.3    2011        0    0.0000
  12069 H         751.1290 -189.1882   -0.2966 H      2011        0    0.0000
  12070 H         751.0986 -188.3605    1.2566 H      2011        0    0.0000
  12071 H         753.2758 -187.8101    0.6015 H      2011        0    0.0000
  12072 H         753.6212 -189.3182    1.4409 H      2011        0    0.0000
  12073 C         753.7022 -189.4837   -0.7353 C.3    2012        0    0.0000
  12074 C         755.2113 -189.7243   -0.6174 C.3    2012        0    0.0000
  12075 H         753.1888 -190.4239   -0.9718 H      2012        0    0.0000
  12076 H         753.4948 -188.7944   -1.5632 H      2012        0    0.0000
  12077 H         755.4016 -190.6773   -0.1083 H      2012        0    0.0000
  12078 H         755.6584 -189.8058   -1.6158 H      2012        0    0.0000
  12079 C         755.9360 -188.5779    0.1687 C.3    2013        0    0.0000
  12080 C         757.3730 -188.9521    0.5482 C.3    2013        0    0.0000
  12081 H         755.9340 -187.6704   -0.4477 H      2013        0    0.0000
  12082 H         755.3566 -188.3470    1.0712 H      2013        0    0.0000
  12083 H         757.3677 -189.6920    1.3583 H      2013        0    0.0000
  12084 H         757.8769 -189.4230   -0.3051 H      2013        0    0.0000
  12085 C         758.2100 -187.7081    1.0057 C.3    2014        0    0.0000
  12086 C         759.6933 -188.0438    1.1954 C.3    2014        0    0.0000
  12087 H         758.0969 -186.9120    0.2592 H      2014        0    0.0000
  12088 H         757.7884 -187.3234    1.9426 H      2014        0    0.0000
  12089 H         759.7980 -188.9999    1.7231 H      2014        0    0.0000
  12090 H         760.1788 -188.1676    0.2195 H      2014        0    0.0000
  12091 C         760.4547 -186.9357    2.0016 C.3    2015        0    0.0000
  12092 C         761.9766 -187.0729    1.8824 C.3    2015        0    0.0000
  12093 H         760.1361 -185.9512    1.6371 H      2015        0    0.0000
  12094 H         760.1531 -186.9944    3.0547 H      2015        0    0.0000
  12095 H         762.4617 -186.6760    2.7828 H      2015        0    0.0000
  12096 H         762.2547 -188.1320    1.8156 H      2015        0    0.0000
  12097 C         762.5446 -186.3213    0.6294 C.3    2016        0    0.0000
  12098 C         764.0692 -186.4372    0.5242 C.3    2016        0    0.0000
  12099 H         762.0731 -186.7310   -0.2725 H      2016        0    0.0000
  12100 H         762.2505 -185.2659    0.6868 H      2016        0    0.0000
  12101 H         764.3545 -187.4775    0.3246 H      2016        0    0.0000
  12102 H         764.4341 -185.8425   -0.3224 H      2016        0    0.0000
  12103 C         764.7930 -185.9561    1.8289 C.3    2017        0    0.0000
  12104 C         766.2989 -186.2400    1.7960 C.3    2017        0    0.0000
  12105 H         764.6156 -184.8810    1.9558 H      2017        0    0.0000
  12106 H         764.3350 -186.4551    2.6918 H      2017        0    0.0000
  12107 H         766.7067 -186.2253    2.8144 H      2017        0    0.0000
  12108 H         766.4836 -187.2452    1.3972 H      2017        0    0.0000
  12109 C         767.0809 -185.1986    0.9234 C.3    2018        0    0.0000
  12110 C         768.5999 -185.3507    1.0596 C.3    2018        0    0.0000
  12111 H         766.7830 -185.3215   -0.1253 H      2018        0    0.0000
  12112 H         766.7758 -184.1877    1.2212 H      2018        0    0.0000
  12113 H         768.8788 -185.4067    2.1192 H      2018        0    0.0000
  12114 H         768.9268 -186.2906    0.5978 H      2018        0    0.0000
  12115 C         769.3779 -184.1634    0.3943 C.3    2019        0    0.0000
  12116 C         770.8673 -184.1700    0.7557 C.3    2019        0    0.0000
  12117 H         769.2546 -184.2256   -0.6940 H      2019        0    0.0000
  12118 H         768.9185 -183.2186    0.7100 H      2019        0    0.0000
  12119 H         771.4706 -183.9402   -0.1313 H      2019        0    0.0000
  12120 H         771.0791 -183.3855    1.4927 H      2019        0    0.0000
  12121 C         771.3311 -185.5494    1.3386 C.3    2020        0    0.0000
  12122 C         772.8051 -185.5364    1.7587 C.3    2020        0    0.0000
  12123 H         770.6973 -185.8013    2.1979 H      2020        0    0.0000
  12124 H         771.1620 -186.3272    0.5836 H      2020        0    0.0000
  12125 H         773.4338 -185.2244    0.9156 H      2020        0    0.0000
  12126 H         772.9619 -184.8012    2.5577 H      2020        0    0.0000
  12127 C         773.2923 -186.9395    2.2603 C.3    2021        0    0.0000
  12128 C         774.7696 -186.9295    2.6686 C.3    2021        0    0.0000
  12129 H         772.6695 -187.2474    3.1093 H      2021        0    0.0000
  12130 H         773.1271 -187.6764    1.4646 H      2021        0    0.0000
  12131 H         774.8732 -187.2479    3.7134 H      2021        0    0.0000
  12132 H         775.3323 -187.6502    2.0624 H      2021        0    0.0000
  12133 C         775.4217 -185.5134    2.5049 C.3    2022        0    0.0000
  12134 C         776.9484 -185.5587    2.6325 C.3    2022        0    0.0000
  12135 H         775.1379 -185.1042    1.5274 H      2022        0    0.0000
  12136 H         775.0008 -184.8405    3.2623 H      2022        0    0.0000
  12137 H         777.2327 -186.0261    3.5834 H      2022        0    0.0000
  12138 H         777.3741 -186.1811    1.8357 H      2022        0    0.0000
  12139 C         777.5934 -184.1318    2.5581 C.3    2023        0    0.0000
  12140 C         779.1211 -184.1900    2.4478 C.3    2023        0    0.0000
  12141 H         777.1741 -183.5987    1.6959 H      2023        0    0.0000
  12142 H         777.3021 -183.5650    3.4511 H      2023        0    0.0000
  12143 H         779.5359 -184.7764    3.2770 H      2023        0    0.0000
  12144 H         779.4122 -184.7030    1.5227 H      2023        0    0.0000
  12145 C         779.7725 -182.7642    2.4615 C.3    2024        0    0.0000
  12146 C         781.3026 -182.8240    2.3926 C.3    2024        0    0.0000
  12147 H         779.3801 -182.1880    1.6144 H      2024        0    0.0000
  12148 H         779.4572 -182.2401    3.3722 H      2024        0    0.0000
  12149 H         781.6857 -183.5254    3.1440 H      2024        0    0.0000
  12150 H         781.6204 -183.2055    1.4144 H      2024        0    0.0000
  12151 C         781.9630 -181.4217    2.6270 C.3    2025        0    0.0000
  12152 C         783.4938 -181.4872    2.5904 C.3    2025        0    0.0000
  12153 H         781.5978 -180.7264    1.8610 H      2025        0    0.0000
  12154 H         781.6263 -181.0296    3.5947 H      2025        0    0.0000
  12155 H         783.8548 -182.2453    3.2963 H      2025        0    0.0000
  12156 H         783.8333 -181.7971    1.5943 H      2025        0    0.0000
  12157 C         784.1560 -180.1111    2.9444 C.3    2026        0    0.0000
  12158 C         785.6854 -180.1977    2.9928 C.3    2026        0    0.0000
  12159 H         783.8447 -179.3672    2.2006 H      2026        0    0.0000
  12160 H         783.7677 -179.7704    3.9122 H      2026        0    0.0000
  12161 H         785.9947 -181.0329    3.6334 H      2026        0    0.0000
  12162 H         786.0823 -180.4050    1.9913 H      2026        0    0.0000
  12163 C         786.3384 -178.8785    3.5321 C.3    2027        0    0.0000
  12164 C         787.8696 -178.9256    3.4813 C.3    2027        0    0.0000
  12165 H         785.9683 -178.0328    2.9394 H      2027        0    0.0000
  12166 H         786.0012 -178.7126    4.5627 H      2027        0    0.0000
  12167 H         788.2857 -177.9532    3.7728 H      2027        0    0.0000
  12168 H         788.2476 -179.6594    4.2040 H      2027        0    0.0000
  12169 C         788.4056 -179.2977    2.0560 C.3    2028        0    0.0000
  12170 C         789.9219 -179.5204    2.0454 C.3    2028        0    0.0000
  12171 H         787.8902 -180.2021    1.7094 H      2028        0    0.0000
  12172 H         788.1383 -178.4954    1.3570 H      2028        0    0.0000
  12173 H         790.3246 -179.3194    1.0449 H      2028        0    0.0000
  12174 H         790.4105 -178.8151    2.7291 H      2028        0    0.0000
  12175 C         790.3110 -180.9804    2.4628 C.3    2029        0    0.0000
  12176 C         791.6889 -181.0459    3.1308 C.3    2029        0    0.0000
  12177 H         789.5441 -181.3698    3.1437 H      2029        0    0.0000
  12178 H         790.2946 -181.6194    1.5712 H      2029        0    0.0000
  12179 H         791.5930 -180.8686    4.2092 H      2029        0    0.0000
  12180 H         792.1165 -182.0494    3.0134 H      2029        0    0.0000
  12181 C         792.6893 -179.9973    2.5333 C.3    2030        0    0.0000
  12182 C         793.8744 -179.7275    3.4671 C.3    2030        0    0.0000
  12183 H         793.0498 -180.3646    1.5645 H      2030        0    0.0000
  12184 H         792.1470 -179.0646    2.3347 H      2030        0    0.0000
  12185 H         793.5305 -179.2107    4.3716 H      2030        0    0.0000
  12186 H         794.3181 -180.6756    3.7955 H      2030        0    0.0000
  12187 C         794.9858 -178.8603    2.7812 C.3    2031        0    0.0000
  12188 C         795.9359 -178.2218    3.8005 C.3    2031        0    0.0000
  12189 H         795.5504 -179.4943    2.0865 H      2031        0    0.0000
  12190 H         794.5041 -178.0817    2.1769 H      2031        0    0.0000
  12191 H         795.3776 -177.5539    4.4682 H      2031        0    0.0000
  12192 H         796.3844 -178.9973    4.4338 H      2031        0    0.0000
  12193 C         797.0834 -177.4049    3.1126 C.3    2032        0    0.0000
  12194 C         798.4181 -177.5412    3.8534 C.3    2032        0    0.0000
  12195 H         797.1911 -177.7500    2.0768 H      2032        0    0.0000
  12196 H         796.7863 -176.3500    3.0639 H      2032        0    0.0000
  12197 H         798.4255 -176.8920    4.7377 H      2032        0    0.0000
  12198 H         798.5438 -178.5690    4.2161 H      2032        0    0.0000
  12199 C         799.6419 -177.1727    2.9457 C.3    2033        0    0.0000
  12200 C         800.7536 -176.4654    3.7286 C.3    2033        0    0.0000
  12201 H         800.0305 -178.0901    2.4864 H      2033        0    0.0000
  12202 H         799.2938 -176.5327    2.1255 H      2033        0    0.0000
  12203 H         800.5033 -175.4057    3.8632 H      2033        0    0.0000
  12204 H         800.8406 -176.8985    4.7328 H      2033        0    0.0000
  12205 C         802.1437 -176.5691    3.0114 C.3    2034        0    0.0000
  12206 C         803.2703 -175.9336    3.8335 C.3    2034        0    0.0000
  12207 H         802.3663 -177.6267    2.8227 H      2034        0    0.0000
  12208 H         802.0729 -176.0823    2.0308 H      2034        0    0.0000
  12209 H         803.2618 -174.8443    3.7044 H      2034        0    0.0000
  12210 H         803.1107 -176.1255    4.9018 H      2034        0    0.0000
  12211 C         804.6827 -176.4795    3.4276 C.3    2035        0    0.0000
  12212 C         805.7820 -175.4237    3.5891 C.3    2035        0    0.0000
  12213 H         804.9123 -177.3586    4.0426 H      2035        0    0.0000
  12214 H         804.6428 -176.8248    2.3871 H      2035        0    0.0000
  12215 H         806.7591 -175.8574    3.3427 H      2035        0    0.0000
  12216 H         805.6171 -174.5985    2.8853 H      2035        0    0.0000
  12217 C         805.8392 -174.8432    5.0442 C.3    2036        0    0.0000
  12218 C         806.8165 -173.6686    5.1629 C.3    2036        0    0.0000
  12219 H         804.8311 -174.5251    5.3378 H      2036        0    0.0000
  12220 H         806.1297 -175.6454    5.7338 H      2036        0    0.0000
  12221 H         806.4268 -172.7988    4.6198 H      2036        0    0.0000
  12222 H         806.9153 -173.3661    6.2127 H      2036        0    0.0000
  12223 C         808.2379 -174.0193    4.6022 C.3    2037        0    0.0000
  12224 C         809.1372 -172.7838    4.4851 C.3    2037        0    0.0000
  12225 H         808.7040 -174.7628    5.2604 H      2037        0    0.0000
  12226 H         808.1232 -174.4954    3.6205 H      2037        0    0.0000
  12227 H         808.5757 -171.9501    4.0455 H      2037        0    0.0000
  12228 H         809.4583 -172.4565    5.4818 H      2037        0    0.0000
  12229 C         810.4081 -173.0549    3.6085 C.3    2038        0    0.0000
  12230 C         811.6810 -172.4759    4.2360 C.3    2038        0    0.0000
  12231 H         810.5168 -174.1376    3.4685 H      2038        0    0.0000
  12232 H         810.2495 -172.6228    2.6127 H      2038        0    0.0000
  12233 H         811.6039 -171.3836    4.3029 H      2038        0    0.0000
  12234 H         811.7970 -172.8469    5.2618 H      2038        0    0.0000
  12235 C         812.9667 -172.8426    3.4176 C.3    2039        0    0.0000
  12236 C         814.1410 -171.9089    3.7314 C.3    2039        0    0.0000
  12237 H         813.2424 -173.8811    3.6388 H      2039        0    0.0000
  12238 H         812.7285 -172.8009    2.3475 H      2039        0    0.0000
  12239 H         814.6625 -171.6362    2.8055 H      2039        0    0.0000
  12240 H         813.7714 -170.9745    4.1716 H      2039        0    0.0000
  12241 C         815.1704 -172.5599    4.7182 C.3    2040        0    0.0000
  12242 C         816.3677 -171.6443    4.9960 C.3    2040        0    0.0000
  12243 H         814.6563 -172.8019    5.6566 H      2040        0    0.0000
  12244 H         815.5147 -173.5110    4.2933 H      2040        0    0.0000
  12245 H         816.0782 -170.5949    4.8600 H      2040        0    0.0000
  12246 H         816.6879 -171.7501    6.0399 H      2040        0    0.0000
  12247 C         817.5853 -171.9580    4.0597 C.3    2041        0    0.0000
  12248 C         818.8165 -171.1130    4.4052 C.3    2041        0    0.0000
  12249 H         817.8271 -173.0252    4.1396 H      2041        0    0.0000
  12250 H         817.2866 -171.7797    3.0193 H      2041        0    0.0000
  12251 H         818.8152 -170.1880    3.8155 H      2041        0    0.0000
  12252 H         818.7836 -170.8142    5.4603 H      2041        0    0.0000
  12253 C         820.1573 -171.8802    4.1388 C.3    2042        0    0.0000
  12254 C         821.3748 -170.9495    4.1678 C.3    2042        0    0.0000
  12255 H         820.2690 -172.6692    4.8929 H      2042        0    0.0000
  12256 H         820.0905 -172.3819    3.1655 H      2042        0    0.0000
  12257 H         822.2324 -171.4660    4.6166 H      2042        0    0.0000
  12258 H         821.6682 -170.6820    3.1450 H      2042        0    0.0000
  12259 C         821.0982 -169.6342    4.9745 C.3    2043        0    0.0000
  12260 C         822.2775 -168.6571    4.9143 C.3    2043        0    0.0000
  12261 H         820.1942 -169.1580    4.5751 H      2043        0    0.0000
  12262 H         820.8810 -169.8979    6.0170 H      2043        0    0.0000
  12263 H         821.9888 -167.7526    4.3648 H      2043        0    0.0000
  12264 H         822.5523 -168.3365    5.9268 H      2043        0    0.0000
  12265 C         823.5364 -169.2871    4.2247 C.3    2044        0    0.0000
  12266 C         824.7070 -168.3013    4.1406 C.3    2044        0    0.0000
  12267 H         823.8368 -170.1808    4.7857 H      2044        0    0.0000
  12268 H         823.2567 -169.6255    3.2193 H      2044        0    0.0000
  12269 H         825.2023 -168.3879    3.1656 H      2044        0    0.0000
  12270 H         824.3374 -167.2711    4.2157 H      2044        0    0.0000
  12271 C         825.7680 -168.5411    5.2695 C.3    2045        0    0.0000
  12272 C         827.0394 -167.7117    5.0574 C.3    2045        0    0.0000
  12273 H         825.3155 -168.2949    6.2381 H      2045        0    0.0000
  12274 H         826.0164 -169.6091    5.3001 H      2045        0    0.0000
  12275 H         827.5436 -168.0255    4.1351 H      2045        0    0.0000
  12276 H         826.7811 -166.6530    4.9308 H      2045        0    0.0000
  12277 C         828.0436 -167.8473    6.2536 C.3    2046        0    0.0000
  12278 C         829.3152 -167.0186    6.0411 C.3    2046        0    0.0000
  12279 H         827.5395 -167.5330    7.1758 H      2046        0    0.0000
  12280 H         828.3014 -168.9060    6.3805 H      2046        0    0.0000
  12281 H         829.0697 -166.0750    5.5382 H      2046        0    0.0000
  12282 H         829.7577 -166.7536    7.0094 H      2046        0    0.0000
  12283 C         830.3864 -167.7820    5.1881 C.3    2047        0    0.0000
  12284 C         831.4991 -166.8543    4.6877 C.3    2047        0    0.0000
  12285 H         830.8141 -168.5881    5.7969 H      2047        0    0.0000
  12286 H         829.8853 -168.2611    4.3379 H      2047        0    0.0000
  12287 H         832.1259 -167.3793    3.9562 H      2047        0    0.0000
  12288 H         831.0642 -165.9914    4.1683 H      2047        0    0.0000
  12289 C         832.4097 -166.3359    5.8538 C.3    2048        0    0.0000
  12290 C         833.7427 -165.7763    5.3448 C.3    2048        0    0.0000
  12291 H         831.8654 -165.5630    6.4105 H      2048        0    0.0000
  12292 H         832.5907 -167.1604    6.5544 H      2048        0    0.0000
  12293 H         834.5709 -166.1731    5.9450 H      2048        0    0.0000
  12294 H         833.9178 -166.1020    4.3121 H      2048        0    0.0000
  12295 C         833.7874 -164.2101    5.3951 C.3    2049        0    0.0000
  12296 C         835.2113 -163.6643    5.2409 C.3    2049        0    0.0000
  12297 H         833.1440 -163.8123    4.6006 H      2049        0    0.0000
  12298 H         833.3569 -163.8745    6.3468 H      2049        0    0.0000
  12299 H         835.1823 -162.6498    4.8246 H      2049        0    0.0000
  12300 H         835.6933 -163.5881    6.2234 H      2049        0    0.0000
  12301 C         836.0960 -164.5662    4.3127 C.3    2050        0    0.0000
  12302 C         837.5199 -164.0205    4.1586 C.3    2050        0    0.0000
  12303 H         836.1250 -165.5808    4.7290 H      2050        0    0.0000
  12304 H         835.6140 -164.6425    3.3302 H      2050        0    0.0000
  12305 H         837.8461 -164.1098    3.1150 H      2050        0    0.0000
  12306 H         837.5419 -162.9518    4.4052 H      2050        0    0.0000
  12307 C         838.5464 -164.7717    5.0748 C.3    2051        0    0.0000
  12308 C         839.9596 -164.1888    4.9633 C.3    2051        0    0.0000
  12309 H         838.1984 -164.7181    6.1138 H      2051        0    0.0000
  12310 H         838.5548 -165.8337    4.7998 H      2051        0    0.0000
  12311 H         840.6841 -164.9918    4.7792 H      2051        0    0.0000
  12312 H         840.0190 -163.5080    4.1051 H      2051        0    0.0000
  12313 C         840.3851 -163.4108    6.2559 C.3    2052        0    0.0000
  12314 C         841.7032 -162.6513    6.0693 C.3    2052        0    0.0000
  12315 H         839.5839 -162.7124    6.5281 H      2052        0    0.0000
  12316 H         840.4761 -164.1243    7.0843 H      2052        0    0.0000
  12317 H         841.9411 -162.0822    6.9765 H      2052        0    0.0000
  12318 H         842.5270 -163.3596    5.9166 H      2052        0    0.0000
  12319 C         841.6533 -161.6645    4.8523 C.3    2053        0    0.0000
  12320 C         842.9844 -160.9346    4.6412 C.3    2053        0    0.0000
  12321 H         841.3865 -162.2289    3.9502 H      2053        0    0.0000
  12322 H         840.8482 -160.9380    5.0190 H      2053        0    0.0000
  12323 H         842.8082 -159.8587    4.5190 H      2053        0    0.0000
  12324 H         843.6216 -161.0510    5.5265 H      2053        0    0.0000
  12325 C         843.7604 -161.4653    3.3868 C.3    2054        0    0.0000
  12326 C         845.2412 -161.0703    3.4099 C.3    2054        0    0.0000
  12327 H         843.6630 -162.5573    3.3465 H      2054        0    0.0000
  12328 H         843.2805 -161.0726    2.4818 H      2054        0    0.0000
  12329 H         845.7167 -161.3377    2.4582 H      2054        0    0.0000
  12330 H         845.3388 -159.9828    3.5164 H      2054        0    0.0000
  12331 C         846.0231 -161.7645    4.5780 C.3    2055        0    0.0000
  12332 C         847.4354 -161.1948    4.7507 C.3    2055        0    0.0000
  12333 H         845.4523 -161.6428    5.5070 H      2055        0    0.0000
  12334 H         846.0739 -162.8420    4.3783 H      2055        0    0.0000
  12335 H         848.1315 -161.9943    5.0333 H      2055        0    0.0000
  12336 H         847.7952 -160.7859    3.7983 H      2055        0    0.0000
  12337 C         847.4924 -160.0674    5.8383 C.3    2056        0    0.0000
  12338 C         848.7382 -159.1859    5.6966 C.3    2056        0    0.0000
  12339 H         846.5864 -159.4537    5.7594 H      2056        0    0.0000
  12340 H         847.4721 -160.5328    6.8315 H      2056        0    0.0000
  12341 H         848.4956 -158.2808    5.1261 H      2056        0    0.0000
  12342 H         849.0783 -158.8534    6.6853 H      2056        0    0.0000
  12343 C         849.9166 -159.9330    4.9819 C.3    2057        0    0.0000
  12344 C         851.1080 -159.0091    4.7062 C.3    2057        0    0.0000
  12345 H         850.2318 -160.7767    5.6081 H      2057        0    0.0000
  12346 H         849.5460 -160.3598    4.0416 H      2057        0    0.0000
  12347 H         850.7521 -158.0203    4.3911 H      2057        0    0.0000
  12348 H         851.6868 -158.8573    5.6257 H      2057        0    0.0000
  12349 C         852.0592 -159.5805    3.5989 C.3    2058        0    0.0000
  12350 C         853.4139 -158.8641    3.5708 C.3    2058        0    0.0000
  12351 H         852.2045 -160.6532    3.7767 H      2058        0    0.0000
  12352 H         851.5639 -159.4869    2.6246 H      2058        0    0.0000
  12353 H         853.9500 -159.1095    2.6456 H      2058        0    0.0000
  12354 H         853.2648 -157.7773    3.5698 H      2058        0    0.0000
  12355 C         854.3151 -159.2495    4.7942 C.3    2059        0    0.0000
  12356 C         855.5189 -158.3131    4.9468 C.3    2059        0    0.0000
  12357 H         853.7036 -159.2272    5.7047 H      2059        0    0.0000
  12358 H         854.6570 -160.2844    4.6695 H      2059        0    0.0000
  12359 H         855.3040 -157.5437    5.6988 H      2059        0    0.0000
  12360 H         856.3885 -158.8745    5.3100 H      2059        0    0.0000
  12361 C         855.8990 -157.6095    3.5984 C.3    2060        0    0.0000
  12362 C         856.9899 -156.5490    3.7839 C.3    2060        0    0.0000
  12363 H         856.2332 -158.3719    2.8837 H      2060        0    0.0000
  12364 H         854.9977 -157.1516    3.1722 H      2060        0    0.0000
  12365 H         856.8204 -155.7109    3.0966 H      2060        0    0.0000
  12366 H         856.9454 -156.1373    4.7998 H      2060        0    0.0000
  12367 C         858.4266 -157.1245    3.5344 C.3    2061        0    0.0000
  12368 C         859.5208 -156.0779    3.7716 C.3    2061        0    0.0000
  12369 H         858.5815 -157.9869    4.1945 H      2061        0    0.0000
  12370 H         858.4828 -157.5012    2.5056 H      2061        0    0.0000
  12371 H         859.1652 -155.0861    3.4660 H      2061        0    0.0000
  12372 H         859.7538 -156.0131    4.8416 H      2061        0    0.0000
  12373 C         860.8375 -156.4065    2.9867 C.3    2062        0    0.0000
  12374 C         862.0742 -155.7771    3.6375 C.3    2062        0    0.0000
  12375 H         860.9543 -157.4960    2.9326 H      2062        0    0.0000
  12376 H         860.7325 -156.0493    1.9548 H      2062        0    0.0000
  12377 H         861.8721 -155.5556    4.6928 H      2062        0    0.0000
  12378 H         862.9109 -156.4864    3.6191 H      2062        0    0.0000
  12379 C         862.5158 -154.4555    2.9193 C.3    2063        0    0.0000
  12380 C         863.5688 -153.6827    3.7211 C.3    2063        0    0.0000
  12381 H         862.9089 -154.7071    1.9265 H      2063        0    0.0000
  12382 H         861.6306 -153.8279    2.7579 H      2063        0    0.0000
  12383 H         863.3409 -152.6097    3.7053 H      2063        0    0.0000
  12384 H         863.5446 -153.9945    4.7726 H      2063        0    0.0000
  12385 C         865.0177 -153.8997    3.1631 C.3    2064        0    0.0000
  12386 C         866.0763 -153.1673    3.9950 C.3    2064        0    0.0000
  12387 H         865.2321 -154.9754    3.1445 H      2064        0    0.0000
  12388 H         865.0514 -153.5537    2.1226 H      2064        0    0.0000
  12389 H         865.8381 -152.0977    4.0493 H      2064        0    0.0000
  12390 H         866.0717 -153.5437    5.0254 H      2064        0    0.0000
  12391 C         867.5179 -153.3344    3.4024 C.3    2065        0    0.0000
  12392 C         868.4321 -152.1565    3.7572 C.3    2065        0    0.0000
  12393 H         867.9482 -154.2710    3.7781 H      2065        0    0.0000
  12394 H         867.4426 -153.4372    2.3128 H      2065        0    0.0000
  12395 H         867.8380 -151.2419    3.8763 H      2065        0    0.0000
  12396 H         868.9249 -152.3396    4.7201 H      2065        0    0.0000
  12397 C         869.5303 -151.9073    2.6668 C.3    2066        0    0.0000
  12398 C         870.8641 -151.4622    3.2769 C.3    2066        0    0.0000
  12399 H         869.6702 -152.8291    2.0887 H      2066        0    0.0000
  12400 H         869.1655 -151.1474    1.9647 H      2066        0    0.0000
  12401 H         870.7658 -150.4557    3.7023 H      2066        0    0.0000
  12402 H         871.1404 -152.1281    4.1037 H      2066        0    0.0000
  12403 C         872.0258 -151.4545    2.2242 C.3    2067        0    0.0000
  12404 C         873.2543 -150.6841    2.7206 C.3    2067        0    0.0000
  12405 H         872.3000 -152.4911    1.9929 H      2067        0    0.0000
  12406 H         871.6551 -151.0110    1.2918 H      2067        0    0.0000
  12407 H         873.9081 -150.4341    1.8759 H      2067        0    0.0000
  12408 H         872.9449 -149.7331    3.1717 H      2067        0    0.0000
  12409 C         874.0801 -151.4986    3.7751 C.3    2068        0    0.0000
  12410 C         875.1912 -150.6598    4.4163 C.3    2068        0    0.0000
  12411 H         873.3967 -151.8715    4.5480 H      2068        0    0.0000
  12412 H         874.5104 -152.3798    3.2832 H      2068        0    0.0000
  12413 H         874.9398 -149.5936    4.3562 H      2068        0    0.0000
  12414 H         875.2785 -150.9033    5.4825 H      2068        0    0.0000
  12415 C         876.5814 -150.8908    3.7297 C.3    2069        0    0.0000
  12416 C         877.5033 -149.6734    3.8607 C.3    2069        0    0.0000
  12417 H         877.0557 -151.7719    4.1792 H      2069        0    0.0000
  12418 H         876.4180 -151.1266    2.6708 H      2069        0    0.0000
  12419 H         877.1006 -148.9749    4.6047 H      2069        0    0.0000
  12420 H         878.4901 -149.9862    4.2240 H      2069        0    0.0000
  12421 C         877.6827 -148.9149    2.5006 C.3    2070        0    0.0000
  12422 C         878.8406 -147.9117    2.5433 C.3    2070        0    0.0000
  12423 H         877.8518 -149.6509    1.7049 H      2070        0    0.0000
  12424 H         876.7460 -148.3980    2.2577 H      2070        0    0.0000
  12425 H         878.5544 -146.9848    2.0309 H      2070        0    0.0000
  12426 H         879.0654 -147.6407    3.5823 H      2070        0    0.0000
  12427 C         880.1415 -148.4769    1.8758 C.3    2071        0    0.0000
  12428 C         881.3467 -147.5517    2.0769 C.3    2071        0    0.0000
  12429 H         880.3533 -149.4675    2.2971 H      2071        0    0.0000
  12430 H         879.9543 -148.6235    0.8048 H      2071        0    0.0000
  12431 H         881.9111 -147.4603    1.1406 H      2071        0    0.0000
  12432 H         881.0063 -146.5423    2.3393 H      2071        0    0.0000
  12433 C         882.3110 -148.0677    3.1999 C.3    2072        0    0.0000
  12434 C         883.5320 -147.1590    3.3799 C.3    2072        0    0.0000
  12435 H         881.7521 -148.1377    4.1413 H      2072        0    0.0000
  12436 H         882.6336 -149.0858    2.9487 H      2072        0    0.0000
  12437 H         883.2262 -146.1061    3.3419 H      2072        0    0.0000
  12438 H         883.9795 -147.3215    4.3683 H      2072        0    0.0000
  12439 C         884.6246 -147.4077    2.2835 C.3    2073        0    0.0000
  12440 C         885.8173 -146.4556    2.4256 C.3    2073        0    0.0000
  12441 H         884.9640 -148.4487    2.3523 H      2073        0    0.0000
  12442 H         884.1658 -147.2907    1.2940 H      2073        0    0.0000
  12443 H         885.5276 -145.5746    3.0116 H      2073        0    0.0000
  12444 H         886.6281 -146.9480    2.9769 H      2073        0    0.0000
  12445 C         886.3668 -145.9803    1.0365 C.3    2074        0    0.0000
  12446 C         887.7263 -145.2828    1.1573 C.3    2074        0    0.0000
  12447 H         886.4477 -146.8494    0.3720 H      2074        0    0.0000
  12448 H         885.6353 -145.3019    0.5802 H      2074        0    0.0000
  12449 H         888.4833 -145.9933    1.5119 H      2074        0    0.0000
  12450 H         888.0588 -144.9337    0.1720 H      2074        0    0.0000
  12451 C         887.6819 -144.0607    2.1381 C.3    2075        0    0.0000
  12452 C         888.9787 -143.2442    2.1079 C.3    2075        0    0.0000
  12453 H         886.8299 -143.4234    1.8705 H      2075        0    0.0000
  12454 H         887.4929 -144.4292    3.1540 H      2075        0    0.0000
  12455 H         889.5264 -143.4426    1.1782 H      2075        0    0.0000
  12456 H         888.7482 -142.1718    2.1150 H      2075        0    0.0000
  12457 C         889.9133 -143.5685    3.3240 C.3    2076        0    0.0000
  12458 C         891.3887 -143.2953    3.0117 C.3    2076        0    0.0000
  12459 H         889.5938 -142.9688    4.1852 H      2076        0    0.0000
  12460 H         889.7766 -144.6202    3.6044 H      2076        0    0.0000
  12461 H         891.9308 -143.0572    3.9353 H      2076        0    0.0000
  12462 H         891.8577 -144.1949    2.5942 H      2076        0    0.0000
  12463 C         891.5726 -142.1132    1.9987 C.3    2077        0    0.0000
  12464 C         892.9536 -142.1275    1.3339 C.3    2077        0    0.0000
  12465 H         890.7870 -142.1760    1.2356 H      2077        0    0.0000
  12466 H         891.4207 -141.1654    2.5300 H      2077        0    0.0000
  12467 H         893.3955 -143.1289    1.4063 H      2077        0    0.0000
  12468 H         892.8585 -141.9016    0.2645 H      2077        0    0.0000
  12469 C         893.9364 -141.0932    1.9834 C.3    2078        0    0.0000
  12470 C         895.2239 -140.9249    1.1689 C.3    2078        0    0.0000
  12471 H         893.4225 -140.1286    2.0784 H      2078        0    0.0000
  12472 H         894.1760 -141.4243    3.0015 H      2078        0    0.0000
  12473 H         895.1108 -141.3963    0.1848 H      2078        0    0.0000
  12474 H         895.4179 -139.8604    0.9879 H      2078        0    0.0000
  12475 C         896.4683 -141.5501    1.8888 C.3    2079        0    0.0000
  12476 C         897.7914 -141.0034    1.3413 C.3    2079        0    0.0000
  12477 H         896.3936 -141.3470    2.9642 H      2079        0    0.0000
  12478 H         896.4342 -142.6403    1.7709 H      2079        0    0.0000
  12479 H         897.6194 -140.0522    0.8225 H      2079        0    0.0000
  12480 H         898.4813 -140.7914    2.1675 H      2079        0    0.0000
  12481 C         898.4820 -142.0022    0.3498 C.3    2080        0    0.0000
  12482 C         899.7116 -141.3892   -0.3295 C.3    2080        0    0.0000
  12483 H         898.7684 -142.9064    0.9011 H      2080        0    0.0000
  12484 H         897.7502 -142.3126   -0.4063 H      2080        0    0.0000
  12485 H         900.3135 -142.1769   -0.7993 H      2080        0    0.0000
  12486 H         899.3986 -140.7107   -1.1327 H      2080        0    0.0000
  12487 C         900.6140 -140.5969    0.6783 C.3    2081        0    0.0000
  12488 C         901.4194 -139.4894   -0.0101 C.3    2081        0    0.0000
  12489 H         899.9767 -140.1675    1.4613 H      2081        0    0.0000
  12490 H         901.2921 -141.3017    1.1753 H      2081        0    0.0000
  12491 H         901.4917 -139.6903   -1.0861 H      2081        0    0.0000
  12492 H         900.9034 -138.5272    0.0969 H      2081        0    0.0000
  12493 C         902.8666 -139.3546    0.5772 C.3    2082        0    0.0000
  12494 C         903.8393 -138.7109   -0.4171 C.3    2082        0    0.0000
  12495 H         902.8207 -138.7594    1.4975 H      2082        0    0.0000
  12496 H         903.2261 -140.3507    0.8638 H      2082        0    0.0000
  12497 H         903.7011 -139.1468   -1.4143 H      2082        0    0.0000
  12498 H         903.6274 -137.6385   -0.5099 H      2082        0    0.0000
  12499 C         905.3358 -138.8950    0.0120 C.3    2083        0    0.0000
  12500 C         906.2559 -137.8481   -0.6255 C.3    2083        0    0.0000
  12501 H         905.4000 -138.8362    1.1056 H      2083        0    0.0000
  12502 H         905.6626 -139.9039   -0.2689 H      2083        0    0.0000
  12503 H         905.6692 -136.9804   -0.9517 H      2083        0    0.0000
  12504 H         906.9770 -137.4804    0.1151 H      2083        0    0.0000
  12505 C         907.0417 -138.4182   -1.8562 C.3    2084        0    0.0000
  12506 C         907.8940 -137.3483   -2.5475 C.3    2084        0    0.0000
  12507 H         907.6782 -139.2450   -1.5172 H      2084        0    0.0000
  12508 H         906.3236 -138.8447   -2.5676 H      2084        0    0.0000
  12509 H         907.7996 -137.4381   -3.6368 H      2084        0    0.0000
  12510 H         907.5308 -136.3480   -2.2812 H      2084        0    0.0000
  12511 C         909.4096 -137.4549   -2.1612 C.3    2085        0    0.0000
  12512 C         910.2456 -136.3246   -2.7718 C.3    2085        0    0.0000
  12513 H         909.4977 -137.4395   -1.0677 H      2085        0    0.0000
  12514 H         909.7919 -138.4277   -2.4944 H      2085        0    0.0000
  12515 H         909.7842 -135.9773   -3.7045 H      2085        0    0.0000
  12516 H         910.2681 -135.4640   -2.0919 H      2085        0    0.0000
  12517 C         911.7183 -136.7703   -3.0718 C.3    2086        0    0.0000
  12518 C         912.7007 -135.5946   -3.0302 C.3    2086        0    0.0000
  12519 H         912.0129 -137.5328   -2.3401 H      2086        0    0.0000
  12520 H         911.7484 -137.2511   -4.0574 H      2086        0    0.0000
  12521 H         912.4428 -134.9178   -2.2063 H      2086        0    0.0000
  12522 H         913.7161 -135.9597   -2.8319 H      2086        0    0.0000
  12523 C         912.7094 -134.7800   -4.3696 C.3    2087        0    0.0000
  12524 C         913.7487 -133.6535   -4.3577 C.3    2087        0    0.0000
  12525 H         912.9095 -135.4677   -5.2005 H      2087        0    0.0000
  12526 H         911.7075 -134.3656   -4.5379 H      2087        0    0.0000
  12527 H         913.4053 -132.8182   -4.9805 H      2087        0    0.0000
  12528 H         913.8657 -133.2606   -3.3401 H      2087        0    0.0000
  12529 C         915.1479 -134.1307   -4.8791 C.3    2088        0    0.0000
  12530 C         916.2112 -133.0315   -4.7780 C.3    2088        0    0.0000
  12531 H         915.4595 -135.0097   -4.3014 H      2088        0    0.0000
  12532 H         915.0439 -134.4589   -5.9207 H      2088        0    0.0000
  12533 H         915.7752 -132.0608   -5.0450 H      2088        0    0.0000
  12534 H         916.5646 -132.9441   -3.7432 H      2088        0    0.0000
  12535 C         917.4408 -133.3068   -5.7106 C.3    2089        0    0.0000
  12536 C         918.6083 -132.3546   -5.4288 C.3    2089        0    0.0000
  12537 H         917.7622 -134.3468   -5.5739 H      2089        0    0.0000
  12538 H         917.1207 -133.2107   -6.7554 H      2089        0    0.0000
  12539 H         918.3348 -131.3304   -5.7112 H      2089        0    0.0000
  12540 H         918.8284 -132.3370   -4.3541 H      2089        0    0.0000
  12541 C         919.9081 -132.7625   -6.2042 C.3    2090        0    0.0000
  12542 C         920.7993 -131.5561   -6.5193 C.3    2090        0    0.0000
  12543 H         920.4633 -133.4937   -5.6036 H      2090        0    0.0000
  12544 H         919.6210 -133.2708   -7.1330 H      2090        0    0.0000
  12545 H         921.1867 -131.6318   -7.5429 H      2090        0    0.0000
  12546 H         920.2109 -130.6313   -6.4727 H      2090        0    0.0000
  12547 C         922.0085 -131.4360   -5.5290 C.3    2091        0    0.0000
  12548 C         922.7221 -130.0844   -5.6448 C.3    2091        0    0.0000
  12549 H         921.6429 -131.5817   -4.5050 H      2091        0    0.0000
  12550 H         922.7134 -132.2520   -5.7309 H      2091        0    0.0000
  12551 H         922.0911 -129.3714   -6.1897 H      2091        0    0.0000
  12552 H         922.8878 -129.6599   -4.6468 H      2091        0    0.0000
  12553 C         924.1021 -130.2022   -6.3792 C.3    2092        0    0.0000
  12554 C         924.5785 -128.8574   -6.9394 C.3    2092        0    0.0000
  12555 H         924.8439 -130.6009   -5.6762 H      2092        0    0.0000
  12556 H         924.0098 -130.9358   -7.1896 H      2092        0    0.0000
  12557 H         923.9150 -128.5312   -7.7499 H      2092        0    0.0000
  12558 H         924.5273 -128.0862   -6.1607 H      2092        0    0.0000
  12559 C         926.0463 -128.9277   -7.4853 C.3    2093        0    0.0000
  12560 C         926.4696 -127.6299   -8.1821 C.3    2093        0    0.0000
  12561 H         926.7241 -129.1448   -6.6505 H      2093        0    0.0000
  12562 H         926.1243 -129.7715   -8.1821 H      2093        0    0.0000
  12563 H         925.6453 -127.2465   -8.7963 H      2093        0    0.0000
  12564 H         926.6918 -126.8573   -7.4355 H      2093        0    0.0000
  12565 C         927.7291 -127.8286   -9.0940 C.3    2094        0    0.0000
  12566 C         928.7839 -126.7387   -8.8734 C.3    2094        0    0.0000
  12567 H         928.1608 -128.8164   -8.8904 H      2094        0    0.0000
  12568 H         927.4086 -127.8350  -10.1432 H      2094        0    0.0000
  12569 H         928.4963 -125.8237   -9.4060 H      2094        0    0.0000
  12570 H         928.8395 -126.4792   -7.8089 H      2094        0    0.0000
  12571 C         930.2065 -127.1813   -9.3608 C.3    2095        0    0.0000
  12572 C         930.9479 -126.0543  -10.0884 C.3    2095        0    0.0000
  12573 H         930.7891 -127.5161   -8.4935 H      2095        0    0.0000
  12574 H         930.0993 -128.0496  -10.0225 H      2095        0    0.0000
  12575 H         930.4682 -125.8506  -11.0538 H      2095        0    0.0000
  12576 H         930.8885 -125.1271   -9.5052 H      2095        0    0.0000
  12577 C         932.4568 -126.3993  -10.3368 C.3    2096        0    0.0000
  12578 C         933.3062 -125.1472  -10.5816 C.3    2096        0    0.0000
  12579 H         932.8408 -126.9507   -9.4696 H      2096        0    0.0000
  12580 H         932.5278 -127.0762  -11.1972 H      2096        0    0.0000
  12581 H         932.6652 -124.3125  -10.8915 H      2096        0    0.0000
  12582 H         933.7977 -124.8382   -9.6508 H      2096        0    0.0000
  12583 C         934.4016 -125.3777  -11.6792 C.3    2097        0    0.0000
  12584 C         934.9761 -124.0605  -12.2119 C.3    2097        0    0.0000
  12585 H         935.2038 -125.9934  -11.2542 H      2097        0    0.0000
  12586 H         933.9621 -125.9562  -12.5012 H      2097        0    0.0000
  12587 H         934.4707 -123.7794  -13.1442 H      2097        0    0.0000
  12588 H         934.7885 -123.2512  -11.4955 H      2097        0    0.0000
  12589 C         936.5179 -124.1503  -12.4804 C.3    2098        0    0.0000
  12590 C         937.1760 -122.7682  -12.5555 C.3    2098        0    0.0000
  12591 H         936.9816 -124.7449  -11.6834 H      2098        0    0.0000
  12592 H         936.6824 -124.6968  -13.4173 H      2098        0    0.0000
  12593 H         937.0650 -122.3532  -13.5650 H      2098        0    0.0000
  12594 H         936.6716 -122.0737  -11.8722 H      2098        0    0.0000
  12595 C         938.7005 -122.8155  -12.1934 C.3    2099        0    0.0000
  12596 C         939.5506 -121.9685  -13.1468 C.3    2099        0    0.0000
  12597 H         938.8300 -122.4650  -11.1619 H      2099        0    0.0000
  12598 H         939.0370 -123.8594  -12.2160 H      2099        0    0.0000
  12599 H         940.5416 -122.4223  -13.2710 H      2099        0    0.0000
  12600 H         939.0885 -121.9439  -14.1415 H      2099        0    0.0000
  12601 C         939.7289 -120.4973  -12.6359 C.3    2100        0    0.0000
  12602 C         940.3026 -119.5730  -13.7156 C.3    2100        0    0.0000
  12603 H         938.7562 -120.1205  -12.2963 H      2100        0    0.0000
  12604 H         940.3876 -120.5050  -11.7586 H      2100        0    0.0000
  12605 H         939.6024 -119.4971  -14.5567 H      2100        0    0.0000
  12606 H         940.4260 -118.5588  -13.3159 H      2100        0    0.0000
  12607 C         941.6865 -120.0757  -14.2540 C.3    2101        0    0.0000
  12608 C         942.1594 -119.2781  -15.4743 C.3    2101        0    0.0000
  12609 H         942.4268 -120.0039  -13.4477 H      2101        0    0.0000
  12610 H         941.6013 -121.1392  -14.5097 H      2101        0    0.0000
  12611 H         941.3088 -119.0539  -16.1299 H      2101        0    0.0000
  12612 H         942.5743 -118.3138  -15.1557 H      2101        0    0.0000
  12613 C         943.2463 -120.0471  -16.3019 C.3    2102        0    0.0000
  12614 C         944.4393 -119.1555  -16.6638 C.3    2102        0    0.0000
  12615 H         943.5865 -120.9129  -15.7204 H      2102        0    0.0000
  12616 H         942.7820 -120.4427  -17.2137 H      2102        0    0.0000
  12617 H         944.5224 -118.3291  -15.9470 H      2102        0    0.0000
  12618 H         945.3721 -119.7284  -16.5936 H      2102        0    0.0000
  12619 C         944.3193 -118.5604  -18.1092 C.3    2103        0    0.0000
  12620 C         945.1800 -117.3057  -18.2941 C.3    2103        0    0.0000
  12621 H         944.6148 -119.3293  -18.8338 H      2103        0    0.0000
  12622 H         943.2662 -118.3271  -18.3093 H      2103        0    0.0000
  12623 H         944.8632 -116.7614  -19.1923 H      2103        0    0.0000
  12624 H         945.0383 -116.6241  -17.4463 H      2103        0    0.0000
  12625 C         946.7053 -117.6448  -18.4203 C.3    2104        0    0.0000
  12626 C         947.5493 -116.4097  -18.7539 C.3    2104        0    0.0000
  12627 H         947.0475 -118.0910  -17.4783 H      2104        0    0.0000
  12628 H         946.8345 -118.4095  -19.1963 H      2104        0    0.0000
  12629 H         947.0098 -115.7648  -19.4587 H      2104        0    0.0000
  12630 H         947.7188 -115.8141  -17.8484 H      2104        0    0.0000
  12631 C         948.9371 -116.7889  -19.3765 C.3    2105        0    0.0000
  12632 C         949.9122 -115.6064  -19.3857 C.3    2105        0    0.0000
  12633 H         949.3638 -117.6238  -18.8071 H      2105        0    0.0000
  12634 H         948.7782 -117.1534  -20.3990 H      2105        0    0.0000
  12635 H         949.5432 -114.8095  -18.7281 H      2105        0    0.0000
  12636 H         950.8855 -115.9184  -18.9872 H      2105        0    0.0000
  12637 C         950.1199 -115.0188  -20.8241 C.3    2106        0    0.0000
  12638 C         951.0047 -113.7673  -20.8181 C.3    2106        0    0.0000
  12639 H         950.5667 -115.7923  -21.4609 H      2106        0    0.0000
  12640 H         949.1388 -114.7838  -21.2551 H      2106        0    0.0000
  12641 H         950.3804 -112.8652  -20.8210 H      2106        0    0.0000
  12642 H         951.6026 -113.7337  -19.8990 H      2106        0    0.0000
  12643 C         951.9708 -113.7169  -22.0516 C.3    2107        0    0.0000
  12644 C         952.9304 -112.5234  -21.9894 C.3    2107        0    0.0000
  12645 H         952.5388 -114.6545  -22.0943 H      2107        0    0.0000
  12646 H         951.3710 -113.6699  -22.9689 H      2107        0    0.0000
  12647 H         952.4476 -111.6786  -21.4828 H      2107        0    0.0000
  12648 H         953.8155 -112.7830  -21.3954 H      2107        0    0.0000
  12649 C         953.3953 -112.0601  -23.4130 C.3    2108        0    0.0000
  12650 C         954.6411 -111.1690  -23.3558 C.3    2108        0    0.0000
  12651 H         953.5956 -112.9477  -24.0259 H      2108        0    0.0000
  12652 H         952.5704 -111.5227  -23.8969 H      2108        0    0.0000
  12653 H         954.6484 -110.5922  -22.4227 H      2108        0    0.0000
  12654 H         955.5466 -111.7884  -23.3504 H      2108        0    0.0000
  12655 C         954.7163 -110.1747  -24.5654 C.3    2109        0    0.0000
  12656 C         956.0741 -109.4691  -24.6538 C.3    2109        0    0.0000
  12657 H         954.5193 -110.7288  -25.4915 H      2109        0    0.0000
  12658 H         953.9133 -109.4340  -24.4647 H      2109        0    0.0000
  12659 H         955.9314 -108.4067  -24.8869 H      2109        0    0.0000
  12660 H         956.5847 -109.5131  -23.6837 H      2109        0    0.0000
  12661 C         957.0043 -110.1051  -25.7436 C.3    2110        0    0.0000
  12662 C         958.2381 -109.2420  -26.0297 C.3    2110        0    0.0000
  12663 H         957.3129 -111.1025  -25.4067 H      2110        0    0.0000
  12664 H         956.4241 -110.2487  -26.6635 H      2110        0    0.0000
  12665 H         958.3429 -109.0820  -27.1100 H      2110        0    0.0000
  12666 H         958.1177 -108.2510  -25.5747 H      2110        0    0.0000
  12667 C         959.5568 -109.8914  -25.4848 C.3    2111        0    0.0000
  12668 C         960.8077 -109.1232  -25.9256 C.3    2111        0    0.0000
  12669 H         959.5056 -109.9301  -24.3897 H      2111        0    0.0000
  12670 H         959.6103 -110.9298  -25.8346 H      2111        0    0.0000
  12671 H         961.6375 -109.8208  -26.0942 H      2111        0    0.0000
  12672 H         960.6216 -108.6180  -26.8815 H      2111        0    0.0000
  12673 C         961.2524 -108.0553  -24.8678 C.3    2112        0    0.0000
  12674 C         961.7066 -106.7450  -25.5207 C.3    2112        0    0.0000
  12675 H         960.4157 -107.8646  -24.1843 H      2112        0    0.0000
  12676 H         962.0649 -108.4749  -24.2617 H      2112        0    0.0000
  12677 H         960.8359 -106.1816  -25.8784 H      2112        0    0.0000
  12678 H         962.2101 -106.1108  -24.7807 H      2112        0    0.0000
  12679 C         962.6810 -106.9878  -26.7246 C.3    2113        0    0.0000
  12680 C         962.8926 -105.7234  -27.5646 C.3    2113        0    0.0000
  12681 H         963.6420 -107.3458  -26.3351 H      2113        0    0.0000
  12682 H         962.2756 -107.7921  -27.3510 H      2113        0    0.0000
  12683 H         961.9686 -105.1326  -27.5944 H      2113        0    0.0000
  12684 H         963.6579 -105.0880  -27.1018 H      2113        0    0.0000
  12685 C         963.3297 -106.0523  -29.0337 C.3    2114        0    0.0000
  12686 C         964.3987 -105.0840  -29.5522 C.3    2114        0    0.0000
  12687 H         963.7063 -107.0820  -29.0685 H      2114        0    0.0000
  12688 H         962.4451 -106.0183  -29.6818 H      2114        0    0.0000
  12689 H         964.0923 -104.0481  -29.3611 H      2114        0    0.0000
  12690 H         965.3405 -105.2389  -29.0116 H      2114        0    0.0000
  12691 C         964.6630 -105.2576  -31.0877 C.3    2115        0    0.0000
  12692 C         965.7815 -104.3391  -31.5921 C.3    2115        0    0.0000
  12693 H         964.9189 -106.3058  -31.2862 H      2115        0    0.0000
  12694 H         963.7330 -105.0518  -31.6320 H      2115        0    0.0000
  12695 H         966.0169 -104.5724  -32.6379 H      2115        0    0.0000
  12696 H         965.4488 -103.2939  -31.5696 H      2115        0    0.0000
  12697 C         967.0894 -104.4715  -30.7380 C.3    2116        0    0.0000
  12698 C         968.2186 -103.5778  -31.2626 C.3    2116        0    0.0000
  12699 H         966.8593 -104.2144  -29.6966 H      2116        0    0.0000
  12700 H         967.4085 -105.5211  -30.7403 H      2116        0    0.0000
  12701 H         969.1885 -104.0655  -31.1046 H      2116        0    0.0000
  12702 H         968.1116 -103.4326  -32.3448 H      2116        0    0.0000
  12703 C         968.2389 -102.1745  -30.5641 C.3    2117        0    0.0000
  12704 C         968.7836 -101.0758  -31.4835 C.3    2117        0    0.0000
  12705 H         967.2203 -101.9250  -30.2422 H      2117        0    0.0000
  12706 H         968.8492 -102.2410  -29.6549 H      2117        0    0.0000
  12707 H         968.0677 -100.8702  -32.2889 H      2117        0    0.0000
  12708 H         968.9033 -100.1407  -30.9222 H      2117        0    0.0000
  12709 C         970.1628 -101.4632  -32.1198 C.3    2118        0    0.0000
  12710 C         970.5110 -100.5880  -33.3289 C.3    2118        0    0.0000
  12711 H         970.9431 -101.3742  -31.3539 H      2118        0    0.0000
  12712 H         970.1313 -102.5190  -32.4163 H      2118        0    0.0000
  12713 H         969.6104 -100.3936  -33.9243 H      2118        0    0.0000
  12714 H         970.8829  -99.6124  -32.9924 H      2118        0    0.0000
  12715 C         971.5925 -101.2507  -34.2502 C.3    2119        0    0.0000
  12716 C         972.6124 -100.2331  -34.7732 C.3    2119        0    0.0000
  12717 H         972.1040 -102.0391  -33.6844 H      2119        0    0.0000
  12718 H         971.0875 -101.7430  -35.0905 H      2119        0    0.0000
  12719 H         972.6698  -99.3744  -34.0928 H      2119        0    0.0000
  12720 H         973.6129 -100.6823  -34.7986 H      2119        0    0.0000
  12721 C         972.2538  -99.7168  -36.2092 C.3    2120        0    0.0000
  12722 C         973.1204  -98.5252  -36.6314 C.3    2120        0    0.0000
  12723 H         972.3755 -100.5417  -36.9222 H      2120        0    0.0000
  12724 H         971.1933  -99.4367  -36.2297 H      2120        0    0.0000
  12725 H         972.5502  -97.8611  -37.2927 H      2120        0    0.0000
  12726 H         973.3979  -97.9316  -35.7516 H      2120        0    0.0000
  12727 C         974.4277  -98.9739  -37.3711 C.3    2121        0    0.0000
  12728 C         975.2985  -97.7827  -37.7858 C.3    2121        0    0.0000
  12729 H         974.9949  -99.6431  -36.7122 H      2121        0    0.0000
  12730 H         974.1500  -99.5624  -38.2543 H      2121        0    0.0000
  12731 H         974.6693  -96.9033  -37.9709 H      2121        0    0.0000
  12732 H         975.9824  -97.5149  -36.9709 H      2121        0    0.0000
  12733 C         976.1401  -98.0820  -39.0740 C.3    2122        0    0.0000
  12734 C         977.3123  -97.1087  -39.2410 C.3    2122        0    0.0000
  12735 H         976.5117  -99.1129  -39.0220 H      2122        0    0.0000
  12736 H         975.4796  -98.0289  -39.9482 H      2122        0    0.0000
  12737 H         977.6431  -96.7464  -38.2597 H      2122        0    0.0000
  12738 H         978.1689  -97.6252  -39.6913 H      2122        0    0.0000
  12739 C         976.9385  -95.8763  -40.1348 C.3    2123        0    0.0000
  12740 C         978.0469  -94.8180  -40.1579 C.3    2123        0    0.0000
  12741 H         976.7327  -96.2277  -41.1535 H      2123        0    0.0000
  12742 H         976.0063  -95.4366  -39.7588 H      2123        0    0.0000
  12743 H         977.6498  -93.8656  -40.5305 H      2123        0    0.0000
  12744 H         978.4099  -94.6312  -39.1397 H      2123        0    0.0000
  12745 C         979.2585  -95.2462  -41.0557 C.3    2124        0    0.0000
  12746 C         980.2650  -94.1076  -41.2548 C.3    2124        0    0.0000
  12747 H         979.7536  -96.1092  -40.5934 H      2124        0    0.0000
  12748 H         978.8768  -95.5848  -42.0268 H      2124        0    0.0000
  12749 H         979.7379  -93.1802  -41.5114 H      2124        0    0.0000
  12750 H         980.8046  -93.9146  -40.3193 H      2124        0    0.0000
  12751 C         981.3063  -94.4254  -42.3825 C.3    2125        0    0.0000
  12752 C         982.0647  -93.1753  -42.8421 C.3    2125        0    0.0000
  12753 H         982.0124  -95.1780  -42.0100 H      2125        0    0.0000
  12754 H         980.7806  -94.8797  -43.2316 H      2125        0    0.0000
  12755 H         982.2381  -93.2172  -43.9245 H      2125        0    0.0000
  12756 H         981.4609  -92.2789  -42.6542 H      2125        0    0.0000
  12757 C         983.4445  -93.0166  -42.1151 C.3    2126        0    0.0000
  12758 C         984.2574  -91.8383  -42.6626 C.3    2126        0    0.0000
  12759 H         983.2650  -92.8830  -41.0411 H      2126        0    0.0000
  12760 H         984.0120  -93.9489  -42.2261 H      2126        0    0.0000
  12761 H         983.7601  -90.8918  -42.4167 H      2126        0    0.0000
  12762 H         985.2449  -91.8085  -42.1855 H      2126        0    0.0000
  12763 C         984.4492  -91.9197  -44.2163 C.3    2127        0    0.0000
  12764 C         985.2694  -90.7459  -44.7627 C.3    2127        0    0.0000
  12765 H         984.9409  -92.8690  -44.4626 H      2127        0    0.0000
  12766 H         983.4618  -91.9432  -44.6937 H      2127        0    0.0000
  12767 H         985.8560  -90.2891  -43.9559 H      2127        0    0.0000
  12768 H         985.9877  -91.1046  -45.5102 H      2127        0    0.0000
  12769 C         984.3666  -89.6441  -45.4173 C.3    2128        0    0.0000
  12770 C         985.1781  -88.6527  -46.2587 C.3    2128        0    0.0000
  12771 H         983.6076  -90.1331  -46.0404 H      2128        0    0.0000
  12772 H         983.8276  -89.1112  -44.6241 H      2128        0    0.0000
  12773 H         986.1650  -89.0735  -46.4880 H      2128        0    0.0000
  12774 H         984.6789  -88.4783  -47.2199 H      2128        0    0.0000
  12775 C         985.3718  -87.2768  -45.5329 C.3    2129        0    0.0000
  12776 C         986.6264  -86.5386  -46.0126 C.3    2129        0    0.0000
  12777 H         984.4824  -86.6579  -45.7049 H      2129        0    0.0000
  12778 H         985.4291  -87.4524  -44.4515 H      2129        0    0.0000
  12779 H         986.9731  -86.9641  -46.9624 H      2129        0    0.0000
  12780 H         986.3917  -85.4847  -46.2066 H      2129        0    0.0000
  12781 C         987.7944  -86.6123  -44.9696 C.3    2130        0    0.0000
  12782 C         989.1728  -86.6071  -45.6398 C.3    2130        0    0.0000
  12783 H         987.7077  -85.7629  -44.2810 H      2130        0    0.0000
  12784 H         987.6730  -87.5206  -44.3664 H      2130        0    0.0000
  12785 H         989.9368  -86.2750  -44.9260 H      2130        0    0.0000
  12786 H         989.4470  -87.6247  -45.9441 H      2130        0    0.0000
  12787 C         989.2178  -85.6738  -46.8985 C.3    2131        0    0.0000
  12788 C         990.2970  -86.1005  -47.8997 C.3    2131        0    0.0000
  12789 H         988.2325  -85.6828  -47.3809 H      2131        0    0.0000
  12790 H         989.3974  -84.6432  -46.5683 H      2131        0    0.0000
  12791 H         991.2922  -85.8614  -47.5048 H      2131        0    0.0000
  12792 H         990.2679  -87.1877  -48.0435 H      2131        0    0.0000
  12793 C         990.1249  -85.4019  -49.2925 C.3    2132        0    0.0000
  12794 C         991.4709  -85.0724  -49.9473 C.3    2132        0    0.0000
  12795 H         989.5387  -86.0584  -49.9474 H      2132        0    0.0000
  12796 H         989.5375  -84.4850  -49.1580 H      2132        0    0.0000
  12797 H         991.9522  -84.2399  -49.4194 H      2132        0    0.0000
  12798 H         992.1489  -85.9310  -49.8661 H      2132        0    0.0000
  12799 C         991.3179  -84.6906  -51.4601 C.3    2133        0    0.0000
  12800 C         992.6181  -84.1374  -52.0539 C.3    2133        0    0.0000
  12801 H         990.9975  -85.5789  -52.0184 H      2133        0    0.0000
  12802 H         990.5145  -83.9500  -51.5584 H      2133        0    0.0000
  12803 H         993.4828  -84.5844  -51.5479 H      2133        0    0.0000
  12804 H         992.6954  -84.4133  -53.1129 H      2133        0    0.0000
  12805 C         992.7112  -82.5774  -51.9302 C.3    2134        0    0.0000
  12806 C         994.1067  -82.0492  -52.2807 C.3    2134        0    0.0000
  12807 H         991.9609  -82.1249  -52.5903 H      2134        0    0.0000
  12808 H         992.4456  -82.2874  -50.9059 H      2134        0    0.0000
  12809 H         994.7991  -82.2361  -51.4505 H      2134        0    0.0000
  12810 H         994.5048  -82.5866  -53.1502 H      2134        0    0.0000
  12811 C         994.0987  -80.5136  -52.5959 C.3    2135        0    0.0000
  12812 C         995.2819  -80.0949  -53.4756 C.3    2135        0    0.0000
  12813 H         993.1533  -80.2592  -53.0911 H      2135        0    0.0000
  12814 H         994.1182  -79.9583  -51.6500 H      2135        0    0.0000
  12815 H         995.4217  -80.8193  -54.2876 H      2135        0    0.0000
  12816 H         995.0749  -79.1272  -53.9489 H      2135        0    0.0000
  12817 C         996.6172  -79.9842  -52.6619 C.3    2136        0    0.0000
  12818 C         997.8507  -79.9541  -53.5711 C.3    2136        0    0.0000
  12819 H         996.5818  -79.0770  -52.0459 H      2136        0    0.0000
  12820 H         996.6808  -80.8328  -51.9695 H      2136        0    0.0000
  12821 H         998.7632  -80.0555  -52.9706 H      2136        0    0.0000
  12822 H         997.8307  -80.8073  -54.2604 H      2136        0    0.0000
  12823 C         997.9404  -78.6310  -54.4071 C.3    2137        0    0.0000
  12824 C         998.9111  -78.7541  -55.5868 C.3    2137        0    0.0000
  12825 H         996.9377  -78.3735  -54.7702 H      2137        0    0.0000
  12826 H         998.2548  -77.8149  -53.7448 H      2137        0    0.0000
  12827 H         999.6801  -79.5041  -55.3645 H      2137        0    0.0000
  12828 H         998.3769  -79.1052  -56.4783 H      2137        0    0.0000
  12829 C         999.6141  -77.3936  -55.9221 C.3    2138        0    0.0000
  12830 C        1000.8276  -77.5776  -56.8402 C.3    2138        0    0.0000
  12831 H         998.8835  -76.7249  -56.3938 H      2138        0    0.0000
  12832 H         999.9211  -76.9137  -54.9845 H      2138        0    0.0000
  12833 H        1001.4428  -78.4144  -56.4871 H      2138        0    0.0000
  12834 H        1000.4966  -77.8355  -57.8539 H      2138        0    0.0000
  12835 C        1001.7189  -76.2900  -56.9119 C.3    2139        0    0.0000
  12836 C        1002.3898  -76.1234  -58.2798 C.3    2139        0    0.0000
  12837 H        1001.0952  -75.4153  -56.6897 H      2139        0    0.0000
  12838 H        1002.4801  -76.3426  -56.1236 H      2139        0    0.0000
  12839 H        1002.9611  -77.0256  -58.5310 H      2139        0    0.0000
  12840 H        1001.6280  -76.0055  -59.0605 H      2139        0    0.0000
  12841 C        1003.3528  -74.8871  -58.3227 C.3    2140        0    0.0000
  12842 C        1004.3117  -74.9390  -59.5172 C.3    2140        0    0.0000
  12843 H        1002.7505  -73.9710  -58.3633 H      2140        0    0.0000
  12844 H        1003.9212  -74.8491  -57.3852 H      2140        0    0.0000
  12845 H        1004.5608  -75.9807  -59.7546 H      2140        0    0.0000
  12846 H        1003.8266  -74.5203  -60.4075 H      2140        0    0.0000
  12847 C        1005.6398  -74.1508  -59.2476 C.3    2141        0    0.0000
  12848 C        1006.0891  -73.3360  -60.4655 C.3    2141        0    0.0000
  12849 H        1005.4890  -73.4880  -58.3865 H      2141        0    0.0000
  12850 H        1006.4228  -74.8643  -58.9628 H      2141        0    0.0000
  12851 H        1005.9999  -73.9409  -61.3764 H      2141        0    0.0000
  12852 H        1005.4332  -72.4667  -60.5993 H      2141        0    0.0000
  12853 C        1007.5692  -72.8368  -60.3332 C.3    2142        0    0.0000
  12854 C        1008.1252  -72.3094  -61.6605 C.3    2142        0    0.0000
  12855 H        1007.6102  -72.0506  -59.5692 H      2142        0    0.0000
  12856 H        1008.1899  -73.6641  -59.9675 H      2142        0    0.0000
  12857 H        1009.0922  -72.7802  -61.8769 H      2142        0    0.0000
  12858 H        1007.4522  -72.5789  -62.4839 H      2142        0    0.0000
  12859 C        1008.3123  -70.7530  -61.6496 C.3    2143        0    0.0000
  12860 C        1009.0797  -70.2516  -62.8779 C.3    2143        0    0.0000
  12861 H        1007.3242  -70.2784  -61.6038 H      2143        0    0.0000
  12862 H        1008.8420  -70.4669  -60.7325 H      2143        0    0.0000
  12863 H        1009.0317  -70.9968  -63.6815 H      2143        0    0.0000
  12864 H        1008.6121  -69.3386  -63.2667 H      2143        0    0.0000
  12865 C        1010.5844  -69.9512  -62.5565 C.3    2144        0    0.0000
  12866 C        1011.3899  -69.6088  -63.8147 C.3    2144        0    0.0000
  12867 H        1010.6342  -69.1215  -61.8406 H      2144        0    0.0000
  12868 H        1011.0204  -70.8251  -62.0569 H      2144        0    0.0000
  12869 H        1012.3083  -70.2080  -63.8479 H      2144        0    0.0000
  12870 H        1010.8135  -69.8658  -64.7120 H      2144        0    0.0000
  12871 C        1011.7745  -68.0904  -63.8788 C.3    2145        0    0.0000
  12872 C        1012.3988  -67.7057  -65.2248 C.3    2145        0    0.0000
  12873 H        1010.8749  -67.4897  -63.6961 H      2145        0    0.0000
  12874 H        1012.4732  -67.8679  -63.0629 H      2145        0    0.0000
  12875 H        1012.7830  -68.6002  -65.7306 H      2145        0    0.0000
  12876 H        1011.6353  -67.2745  -65.8840 H      2145        0    0.0000
  12877 C        1013.5684  -66.6744  -65.0640 C.3    2146        0    0.0000
  12878 C        1014.3860  -66.5181  -66.3510 C.3    2146        0    0.0000
  12879 H        1013.1476  -65.7061  -64.7658 H      2146        0    0.0000
  12880 H        1014.2182  -67.0018  -64.2430 H      2146        0    0.0000
  12881 H        1015.4557  -66.6260  -66.1325 H      2146        0    0.0000
  12882 H        1014.1274  -67.3143  -67.0599 H      2146        0    0.0000
  12883 C        1014.1486  -65.1306  -67.0408 C.3    2147        0    0.0000
  12884 C        1015.3029  -64.7390  -67.9702 C.3    2147        0    0.0000
  12885 H        1013.2089  -65.1725  -67.6054 H      2147        0    0.0000
  12886 H        1014.0157  -64.3675  -66.2640 H      2147        0    0.0000
  12887 H        1015.8328  -65.6371  -68.3108 H      2147        0    0.0000
  12888 H        1014.9117  -64.2445  -68.8680 H      2147        0    0.0000
  12889 C        1016.3289  -63.7811  -67.2721 C.3    2148        0    0.0000
  12890 C        1017.6031  -63.5906  -68.1021 C.3    2148        0    0.0000
  12891 H        1015.8454  -62.8119  -67.0974 H      2148        0    0.0000
  12892 H        1016.5800  -64.1903  -66.2856 H      2148        0    0.0000
  12893 H        1018.4885  -63.7194  -67.4670 H      2148        0    0.0000
  12894 H        1017.6616  -64.3584  -68.8834 H      2148        0    0.0000
  12895 C        1017.6668  -62.1771  -68.7769 C.3    2149        0    0.0000
  12896 C        1018.6082  -62.1526  -69.9862 C.3    2149        0    0.0000
  12897 H        1016.6544  -61.8851  -69.0823 H      2149        0    0.0000
  12898 H        1017.9946  -61.4431  -68.0302 H      2149        0    0.0000
  12899 H        1019.3124  -62.9919  -69.9317 H      2149        0    0.0000
  12900 H        1018.0344  -62.2824  -70.9122 H      2149        0    0.0000
  12901 C        1019.4215  -60.8157  -70.0790 C.3    2150        0    0.0000
  12902 C        1020.5613  -60.8990  -71.1003 C.3    2150        0    0.0000
  12903 H        1018.7356  -60.0024  -70.3464 H      2150        0    0.0000
  12904 H        1019.8226  -60.5762  -69.0864 H      2150        0    0.0000
  12905 H        1021.1501  -61.8095  -70.9333 H      2150        0    0.0000
  12906 H        1020.1522  -60.9701  -72.1157 H      2150        0    0.0000
  12907 C        1021.5172  -59.6586  -71.0263 C.3    2151        0    0.0000
  12908 C        1022.3943  -59.5259  -72.2761 C.3    2151        0    0.0000
  12909 H        1020.9119  -58.7533  -70.8936 H      2151        0    0.0000
  12910 H        1022.1469  -59.7503  -70.1327 H      2151        0    0.0000
  12911 H        1022.9974  -60.4325  -72.4104 H      2151        0    0.0000
  12912 H        1021.7646  -59.4313  -73.1694 H      2151        0    0.0000
  12913 C        1023.3531  -58.2879  -72.2003 C.3    2152        0    0.0000
  12914 C        1024.2273  -58.1527  -73.4520 C.3    2152        0    0.0000
  12915 H        1022.7502  -57.3817  -72.0629 H      2152        0    0.0000
  12916 H        1023.9849  -58.3842  -71.3088 H      2152        0    0.0000
  12917 H        1024.7366  -59.1020  -73.6594 H      2152        0    0.0000
  12918 H        1023.6015  -57.9335  -74.3260 H      2152        0    0.0000
  12919 C        1025.3041  -57.0230  -73.3054 C.3    2153        0    0.0000
  12920 C        1025.9985  -56.7064  -74.6346 C.3    2153        0    0.0000
  12921 H        1024.8193  -56.1217  -72.9102 H      2153        0    0.0000
  12922 H        1026.0449  -57.3353  -72.5589 H      2153        0    0.0000
  12923 H        1026.5741  -57.5761  -74.9747 H      2153        0    0.0000
  12924 H        1025.2505  -56.5008  -75.4102 H      2153        0    0.0000
  12925 C        1026.9620  -55.4750  -74.5229 C.3    2154        0    0.0000
  12926 C        1027.7582  -55.2415  -75.8116 C.3    2154        0    0.0000
  12927 H        1026.3702  -54.5838  -74.2798 H      2154        0    0.0000
  12928 H        1027.6472  -55.6372  -73.6816 H      2154        0    0.0000
  12929 H        1028.3080  -56.1510  -76.0840 H      2154        0    0.0000
  12930 H        1027.0748  -55.0258  -76.6421 H      2154        0    0.0000
  12931 C        1028.7765  -54.0576  -75.6747 C.3    2155        0    0.0000
  12932 C        1029.5194  -53.7759  -76.9854 C.3    2155        0    0.0000
  12933 H        1028.2346  -53.1609  -75.3493 H      2155        0    0.0000
  12934 H        1029.4937  -54.2980  -74.8799 H      2155        0    0.0000
  12935 H        1030.0734  -54.6680  -77.3029 H      2155        0    0.0000
  12936 H        1028.8016  -53.5501  -77.7835 H      2155        0    0.0000
  12937 C        1030.5225  -52.5782  -76.8541 C.3    2156        0    0.0000
  12938 C        1031.3153  -52.3405  -78.1440 C.3    2156        0    0.0000
  12939 H        1029.9612  -51.6746  -76.5857 H      2156        0    0.0000
  12940 H        1031.2087  -52.7813  -76.0227 H      2156        0    0.0000
  12941 H        1031.8190  -53.2653  -78.4518 H      2156        0    0.0000
  12942 H        1030.6340  -52.0664  -78.9592 H      2156        0    0.0000
  12943 C        1032.3894  -51.2103  -77.9815 C.3    2157        0    0.0000
  12944 C        1033.1111  -50.9011  -79.2979 C.3    2157        0    0.0000
  12945 H        1031.8971  -50.3066  -77.6012 H      2157        0    0.0000
  12946 H        1033.1146  -51.5188  -77.2184 H      2157        0    0.0000
  12947 H        1033.5986  -51.8061  -79.6810 H      2157        0    0.0000
  12948 H        1032.3865  -50.5872  -80.0594 H      2157        0    0.0000
  12949 C        1034.1907  -49.7765  -79.1336 C.3    2158        0    0.0000
  12950 C        1034.9110  -49.4659  -80.4503 C.3    2158        0    0.0000
  12951 H        1033.7034  -48.8720  -78.7490 H      2158        0    0.0000
  12952 H        1034.9161  -50.0912  -78.3732 H      2158        0    0.0000
  12953 H        1035.3101  -50.3895  -80.8877 H      2158        0    0.0000
  12954 H        1034.2019  -49.0532  -81.1787 H      2158        0    0.0000
  12955 C        1036.0878  -48.4482  -80.2581 C.3    2159        0    0.0000
  12956 C        1036.7225  -48.0356  -81.5908 C.3    2159        0    0.0000
  12957 H        1035.7078  -47.5633  -79.7325 H      2159        0    0.0000
  12958 H        1036.8442  -48.9014  -79.6054 H      2159        0    0.0000
  12959 H        1037.0697  -48.9239  -82.1330 H      2159        0    0.0000
  12960 H        1035.9746  -47.5492  -82.2290 H      2159        0    0.0000
  12961 C        1037.9325  -47.0582  -81.3950 C.3    2160        0    0.0000
  12962 C        1038.5231  -46.5901  -82.7296 C.3    2160        0    0.0000
  12963 H        1037.5975  -46.1939  -80.8082 H      2160        0    0.0000
  12964 H        1038.7029  -47.5637  -80.7995 H      2160        0    0.0000
  12965 H        1038.7850  -47.4566  -83.3495 H      2160        0    0.0000
  12966 H        1037.7755  -46.0159  -83.2910 H      2160        0    0.0000
  12967 C        1039.8007  -45.7027  -82.5356 C.3    2161        0    0.0000
  12968 C        1040.3196  -45.1338  -83.8608 C.3    2161        0    0.0000
  12969 H        1039.5619  -44.8858  -81.8434 H      2161        0    0.0000
  12970 H        1040.5804  -46.3059  -82.0541 H      2161        0    0.0000
  12971 H        1040.4683  -45.9440  -84.5854 H      2161        0    0.0000
  12972 H        1039.5757  -44.4549  -84.2956 H      2161        0    0.0000
  12973 C        1041.6704  -44.3580  -83.6859 C.3    2162        0    0.0000
  12974 C        1042.1095  -43.6576  -84.9766 C.3    2162        0    0.0000
  12975 H        1041.5541  -43.6228  -82.8799 H      2162        0    0.0000
  12976 H        1042.4440  -45.0640  -83.3591 H      2162        0    0.0000
  12977 H        1042.1213  -44.3736  -85.8076 H      2162        0    0.0000
  12978 H        1041.3879  -42.8759  -85.2445 H      2162        0    0.0000
  12979 C        1043.5311  -43.0101  -84.8471 C.3    2163        0    0.0000
  12980 C        1043.8923  -42.1530  -86.0653 C.3    2163        0    0.0000
  12981 H        1043.5599  -42.3998  -83.9360 H      2163        0    0.0000
  12982 H        1044.2726  -43.8080  -84.7155 H      2163        0    0.0000
  12983 H        1043.9769  -42.7850  -86.9581 H      2163        0    0.0000
  12984 H        1043.0927  -41.4293  -86.2664 H      2163        0    0.0000
  12985 C        1045.2391  -41.3758  -85.8668 C.3    2164        0    0.0000
  12986 C        1045.6310  -40.5661  -87.1078 C.3    2164        0    0.0000
  12987 H        1045.1393  -40.7109  -85.0000 H      2164        0    0.0000
  12988 H        1046.0300  -42.0956  -85.6222 H      2164        0    0.0000
  12989 H        1045.6129  -41.2083  -87.9971 H      2164        0    0.0000
  12990 H        1044.8999  -39.7668  -87.2816 H      2164        0    0.0000
  12991 C        1047.0562  -39.9271  -86.9747 C.3    2165        0    0.0000
  12992 C        1047.3987  -39.0187  -88.1607 C.3    2165        0    0.0000
  12993 H        1047.1019  -39.3569  -86.0386 H      2165        0    0.0000
  12994 H        1047.7977  -40.7312  -86.8903 H      2165        0    0.0000
  12995 H        1047.1832  -39.5349  -89.1044 H      2165        0    0.0000
  12996 H        1046.7679  -38.1212  -88.1414 H      2165        0    0.0000
  12997 C        1048.9034  -38.5789  -88.1572 C.3    2166        0    0.0000
  12998 C        1049.1488  -37.3409  -89.0268 C.3    2166        0    0.0000
  12999 H        1049.2109  -38.3793  -87.1232 H      2166        0    0.0000
  13000 H        1049.5172  -39.4159  -88.5125 H      2166        0    0.0000
  13001 H        1048.7286  -37.4955  -90.0283 H      2166        0    0.0000
  13002 H        1048.6326  -36.4725  -88.5991 H      2166        0    0.0000
  13003 C        1050.6738  -37.0047  -89.1648 C.3    2167        0    0.0000
  13004 C        1050.9104  -35.6347  -89.8100 C.3    2167        0    0.0000
  13005 H        1051.1345  -37.0364  -88.1697 H      2167        0    0.0000
  13006 H        1051.1564  -37.7894  -89.7605 H      2167        0    0.0000
  13007 H        1050.3521  -35.5608  -90.7515 H      2167        0    0.0000
  13008 H        1050.5310  -34.8401  -89.1556 H      2167        0    0.0000
  13009 C        1052.4279  -35.3689  -90.1003 C.3    2168        0    0.0000
  13010 C        1052.7017  -33.9061  -90.4669 C.3    2168        0    0.0000
  13011 H        1053.0118  -35.6505  -89.2153 H      2168        0    0.0000
  13012 H        1052.7528  -36.0279  -90.9149 H      2168        0    0.0000
  13013 H        1052.0563  -33.5999  -91.2996 H      2168        0    0.0000
  13014 H        1052.4543  -33.2535  -89.6204 H      2168        0    0.0000
  13015 C        1054.1969  -33.6647  -90.8711 C.3    2169        0    0.0000
  13016 C        1054.5081  -32.1793  -91.0857 C.3    2169        0    0.0000
  13017 H        1054.8457  -34.0756  -90.0877 H      2169        0    0.0000
  13018 H        1054.4115  -34.2300  -91.7865 H      2169        0    0.0000
  13019 H        1053.8530  -31.7663  -91.8629 H      2169        0    0.0000
  13020 H        1054.3019  -31.6153  -90.1676 H      2169        0    0.0000
  13021 C        1056.0002  -31.9390  -91.5018 C.3    2170        0    0.0000
  13022 C        1056.2933  -30.4616  -91.7858 C.3    2170        0    0.0000
  13023 H        1056.6542  -32.3050  -90.7006 H      2170        0    0.0000
  13024 H        1056.2213  -32.5438  -92.3900 H      2170        0    0.0000
  13025 H        1055.6565  -30.1022  -92.6035 H      2170        0    0.0000
  13026 H        1056.0490  -29.8538  -90.9058 H      2170        0    0.0000
  13027 C        1057.7937  -30.2165  -92.1686 C.3    2171        0    0.0000
  13028 C        1058.0513  -28.7725  -92.6132 C.3    2171        0    0.0000
  13029 H        1058.4236  -30.4622  -91.3048 H      2171        0    0.0000
  13030 H        1058.0723  -30.9122  -92.9698 H      2171        0    0.0000
  13031 H        1057.4226  -28.5275  -93.4783 H      2171        0    0.0000
  13032 H        1057.7705  -28.0768  -91.8128 H      2171        0    0.0000
  13033 C        1059.5521  -28.5267  -92.9934 C.3    2172        0    0.0000
  13034 C        1059.8413  -27.0517  -93.2932 C.3    2172        0    0.0000
  13035 H        1060.1871  -28.8746  -92.1693 H      2172        0    0.0000
  13036 H        1059.8015  -29.1438  -93.8655 H      2172        0    0.0000
  13037 H        1059.1915  -26.6982  -94.1034 H      2172        0    0.0000
  13038 H        1059.6115  -26.4371  -92.4141 H      2172        0    0.0000
  13039 C        1061.3356  -26.8104  -93.7018 C.3    2173        0    0.0000
  13040 C        1061.7020  -25.3222  -93.7111 C.3    2173        0    0.0000
  13041 H        1061.9850  -27.3534  -93.0041 H      2173        0    0.0000
  13042 H        1061.5054  -27.2459  -94.6943 H      2173        0    0.0000
  13043 H        1061.0870  -24.7879  -94.4459 H      2173        0    0.0000
  13044 H        1061.4841  -24.8751  -92.7333 H      2173        0    0.0000
  13045 C        1063.2141  -25.0849  -94.0499 C.3    2174        0    0.0000
  13046 C        1063.4041  -24.0511  -95.1653 C.3    2174        0    0.0000
  13047 H        1063.7328  -24.7568  -93.1406 H      2174        0    0.0000
  13048 H        1063.6650  -26.0412  -94.3424 H      2174        0    0.0000
  13049 H        1062.9935  -24.4347  -96.1076 H      2174        0    0.0000
  13050 H        1062.8475  -23.1358  -94.9287 H      2174        0    0.0000
  13051 C        1064.9122  -23.6832  -95.3838 C.3    2175        0    0.0000
  13052 C        1065.1265  -22.1726  -95.5295 C.3    2175        0    0.0000
  13053 H        1065.4957  -24.0659  -94.5372 H      2175        0    0.0000
  13054 H        1065.2770  -24.2029  -96.2784 H      2175        0    0.0000
  13055 H        1064.3562  -21.7449  -96.1833 H      2175        0    0.0000
  13056 H        1065.0198  -21.6817  -94.5542 H      2175        0    0.0000
  13057 C        1066.5378  -21.8267  -96.1175 C.3    2176        0    0.0000
  13058 C        1067.5771  -21.5703  -95.0206 C.3    2176        0    0.0000
  13059 H        1066.8652  -22.6531  -96.7603 H      2176        0    0.0000
  13060 H        1066.4456  -20.9437  -96.7621 H      2176        0    0.0000
  13061 H        1067.6754  -20.4927  -94.8400 H      2176        0    0.0000
  13062 H        1067.2456  -22.0191  -94.0760 H      2176        0    0.0000
  13063 C        1068.9857  -22.1513  -95.3892 C.3    2177        0    0.0000
  13064 C        1070.0637  -21.0637  -95.4544 C.3    2177        0    0.0000
  13065 H        1069.2607  -22.9097  -94.6459 H      2177        0    0.0000
  13066 H        1068.9136  -22.6678  -96.3544 H      2177        0    0.0000
  13067 H        1069.5977  -20.0798  -95.5892 H      2177        0    0.0000
  13068 H        1070.6154  -21.0238  -94.5069 H      2177        0    0.0000
  13069 C        1071.0814  -21.3053  -96.6220 C.3    2178        0    0.0000
  13070 C        1071.8103  -20.0209  -97.0322 C.3    2178        0    0.0000
  13071 H        1071.8071  -22.0654  -96.3070 H      2178        0    0.0000
  13072 H        1070.5415  -21.7221  -97.4812 H      2178        0    0.0000
  13073 H        1071.9009  -19.9723  -98.1244 H      2178        0    0.0000
  13074 H        1071.2279  -19.1434  -96.7251 H      2178        0    0.0000
  13075 C        1073.2422  -19.9230  -96.4016 C.3    2179        0    0.0000
  13076 C        1073.9204  -18.5828  -96.7059 C.3    2179        0    0.0000
  13077 H        1073.1613  -20.0660  -95.3169 H      2179        0    0.0000
  13078 H        1073.8539  -20.7497  -96.7836 H      2179        0    0.0000
  13079 H        1074.2241  -18.5456  -97.7594 H      2179        0    0.0000
  13080 H        1073.2119  -17.7592  -96.5530 H      2179        0    0.0000
  13081 C        1075.1815  -18.3376  -95.8075 C.3    2180        0    0.0000
  13082 C        1075.9778  -17.1043  -96.2482 C.3    2180        0    0.0000
  13083 H        1074.8568  -18.2231  -94.7658 H      2180        0    0.0000
  13084 H        1075.8193  -19.2294  -95.8425 H      2180        0    0.0000
  13085 H        1075.3262  -16.4113  -96.7945 H      2180        0    0.0000
  13086 H        1076.3484  -16.5621  -95.3695 H      2180        0    0.0000
  13087 C        1077.1957  -17.4789  -97.1615 C.3    2181        0    0.0000
  13088 C        1077.9534  -16.2415  -97.6555 C.3    2181        0    0.0000
  13089 H        1077.8718  -18.1338  -96.5981 H      2181        0    0.0000
  13090 H        1076.8309  -18.0625  -98.0157 H      2181        0    0.0000
  13091 H        1077.4451  -15.8128  -98.5281 H      2181        0    0.0000
  13092 H        1077.9547  -15.4664  -96.8792 H      2181        0    0.0000
  13093 C        1079.4362  -16.5691  -98.0449 C.3    2182        0    0.0000
  13094 C        1080.1432  -15.3750  -98.6957 C.3    2182        0    0.0000
  13095 H        1079.9777  -16.8813  -97.1434 H      2182        0    0.0000
  13096 H        1079.4409  -17.4273  -98.7284 H      2182        0    0.0000
  13097 H        1080.7291  -15.7106  -99.5604 H      2182        0    0.0000
  13098 H        1079.4023  -14.6604  -99.0753 H      2182        0    0.0000
  13099 C        1081.0962  -14.6325  -97.6970 C.3    2183        0    0.0000
  13100 C        1081.3325  -13.1719  -98.0969 C.3    2183        0    0.0000
  13101 H        1080.6616  -14.6813  -96.6910 H      2183        0    0.0000
  13102 H        1082.0516  -15.1699  -97.6540 H      2183        0    0.0000
  13103 H        1080.5333  -12.8312  -98.7668 H      2183        0    0.0000
  13104 H        1081.2952  -12.5280  -97.2094 H      2183        0    0.0000
  13105 C        1082.7126  -12.9674  -98.8118 C.3    2184        0    0.0000
  13106 C        1083.1292  -11.4932  -98.8595 C.3    2184        0    0.0000
  13107 H        1083.4741  -13.5565  -98.2857 H      2184        0    0.0000
  13108 H        1082.6475  -13.3730  -99.8290 H      2184        0    0.0000
  13109 H        1082.2460  -10.8570  -98.9969 H      2184        0    0.0000
  13110 H        1083.5835  -11.1995  -97.9052 H      2184        0    0.0000
  13111 C        1084.1472  -11.2005 -100.0151 C.3    2185        0    0.0000
  13112 C        1085.2039  -10.1666  -99.6105 C.3    2185        0    0.0000
  13113 H        1084.6327  -12.1406 -100.3053 H      2185        0    0.0000
  13114 H        1083.5931  -10.8478 -100.8939 H      2185        0    0.0000
  13115 H        1084.7239   -9.2051  -99.3894 H      2185        0    0.0000
  13116 H        1085.7090  -10.4854  -98.6903 H      2185        0    0.0000
  13117 C        1086.2806   -9.9487 -100.7286 C.3    2186        0    0.0000
  13118 C        1087.2649   -8.8278 -100.3767 C.3    2186        0    0.0000
  13119 H        1086.8226  -10.8896 -100.8857 H      2186        0    0.0000
  13120 H        1085.7697   -9.7182 -101.6716 H      2186        0    0.0000
  13121 H        1087.4586   -8.2062 -101.2596 H      2186        0    0.0000
  13122 H        1086.8276   -8.1681  -99.6169 H      2186        0    0.0000
  13123 C        1088.6294   -9.3821  -99.8395 C.3    2187        0    0.0000
  13124 C        1089.5177   -8.2761  -99.2592 C.3    2187        0    0.0000
  13125 H        1088.4259  -10.1414  -99.0743 H      2187        0    0.0000
  13126 H        1089.1509   -9.8923 -100.6588 H      2187        0    0.0000
  13127 H        1088.9001   -7.5267  -98.7488 H      2187        0    0.0000
  13128 H        1090.1938   -8.6947  -98.5034 H      2187        0    0.0000
  13129 C        1090.3726   -7.5609 -100.3616 C.3    2188        0    0.0000
  13130 C        1091.2694   -6.4627  -99.7796 C.3    2188        0    0.0000
  13131 H        1090.9838   -8.3118 -100.8773 H      2188        0    0.0000
  13132 H        1089.6960   -7.1352 -101.1129 H      2188        0    0.0000
  13133 H        1090.6794   -5.5579  -99.5873 H      2188        0    0.0000
  13134 H        1091.6782   -6.7836  -98.8133 H      2188        0    0.0000
  13135 C        1092.4576   -6.0978 -100.7348 C.3    2189        0    0.0000
  13136 C        1093.2174   -4.8517 -100.2669 C.3    2189        0    0.0000
  13137 H        1093.1403   -6.9546 -100.7933 H      2189        0    0.0000
  13138 H        1092.0627   -5.9400 -101.7461 H      2189        0    0.0000
  13139 H        1092.8544   -3.9662 -100.8034 H      2189        0    0.0000
  13140 H        1093.0280   -4.6737  -99.2010 H      2189        0    0.0000
  13141 C        1094.7635   -4.9795 -100.4909 C.3    2190        0    0.0000
  13142 C        1095.5394   -3.8152  -99.8650 C.3    2190        0    0.0000
  13143 H        1095.1050   -5.9311 -100.0651 H      2190        0    0.0000
  13144 H        1094.9619   -5.0273 -101.5687 H      2190        0    0.0000
  13145 H        1094.8881   -3.2512  -99.1858 H      2190        0    0.0000
  13146 H        1096.3695   -4.1990  -99.2589 H      2190        0    0.0000
  13147 C        1096.1135   -2.8348 -100.9452 C.3    2191        0    0.0000
  13148 C        1096.8752   -1.6617 -100.3184 C.3    2191        0    0.0000
  13149 H        1096.7744   -3.3965 -101.6169 H      2191        0    0.0000
  13150 H        1095.2849   -2.4604 -101.5589 H      2191        0    0.0000
  13151 H        1096.4742   -0.7109 -100.6907 H      2191        0    0.0000
  13152 H        1096.7334   -1.6593  -99.2306 H      2191        0    0.0000
  13153 C        1098.4111   -1.7178 -100.6275 C.3    2192        0    0.0000
  13154 C        1099.1447   -0.4571 -100.1572 C.3    2192        0    0.0000
  13155 H        1098.8375   -2.6043 -100.1417 H      2192        0    0.0000
  13156 H        1098.5497   -1.8531 -101.7073 H      2192        0    0.0000
  13157 H        1098.5342    0.4314 -100.3611 H      2192        0    0.0000
  13158 H        1099.2960   -0.4928  -99.0712 H      2192        0    0.0000
  13159 C        1100.5374   -0.2846 -100.8558 C.3    2193        0    0.0000
  13160 C        1101.4139    0.7587 -100.1543 C.3    2193        0    0.0000
  13161 H        1101.0477   -1.2556 -100.8713 H      2193        0    0.0000
  13162 H        1100.3750    0.0028 -101.9020 H      2193        0    0.0000
  13163 H        1100.9584    1.7529 -100.2418 H      2193        0    0.0000
  13164 H        1101.4790    0.5355  -99.0820 H      2193        0    0.0000
  13165 C        1102.8636    0.8129 -100.7482 C.3    2194        0    0.0000
  13166 C        1103.5315    2.1747 -100.5276 C.3    2194        0    0.0000
  13167 H        1103.4651    0.0199 -100.2864 H      2194        0    0.0000
  13168 H        1102.8151    0.5872 -101.8208 H      2194        0    0.0000
  13169 H        1103.9984    2.5197 -101.4586 H      2194        0    0.0000
  13170 H        1102.7773    2.9240 -100.2569 H      2194        0    0.0000
  13171 C        1104.6222    2.1264  -99.4028 C.3    2195        0    0.0000
  13172 C        1105.3948    3.4450  -99.2858 C.3    2195        0    0.0000
  13173 H        1104.1357    1.8895  -98.4485 H      2195        0    0.0000
  13174 H        1105.3143    1.3026  -99.6168 H      2195        0    0.0000
  13175 H        1104.8141    4.2620  -99.7317 H      2195        0    0.0000
  13176 H        1105.5414    3.7025  -98.2295 H      2195        0    0.0000
  13177 C        1106.7944    3.3778  -99.9885 C.3    2196        0    0.0000
  13178 C        1107.6560    4.6088  -99.6856 C.3    2196        0    0.0000
  13179 H        1107.3113    2.4673  -99.6610 H      2196        0    0.0000
  13180 H        1106.6428    3.2820 -101.0708 H      2196        0    0.0000
  13181 H        1107.3408    5.4520 -100.3127 H      2196        0    0.0000
  13182 H        1107.5134    4.9206  -98.6435 H      2196        0    0.0000
  13183 C        1109.1813    4.3409  -99.9287 C.3    2197        0    0.0000
  13184 C        1109.9775    5.6380 -100.1084 C.3    2197        0    0.0000
  13185 H        1109.5795    3.7694  -99.0812 H      2197        0    0.0000
  13186 H        1109.2917    3.7058 -100.8165 H      2197        0    0.0000
  13187 H        1110.6979    5.5268 -100.9284 H      2197        0    0.0000
  13188 H        1109.3040    6.4570 -100.3897 H      2197        0    0.0000
  13189 C        1110.7518    6.0451  -98.8074 C.3    2198        0    0.0000
  13190 C        1111.1505    7.5250  -98.8078 C.3    2198        0    0.0000
  13191 H        1110.1208    5.8258  -97.9372 H      2198        0    0.0000
  13192 H        1111.6450    5.4149  -98.7157 H      2198        0    0.0000
  13193 H        1110.5254    8.0828  -99.5160 H      2198        0    0.0000
  13194 H        1110.9724    7.9629  -97.8178 H      2198        0    0.0000
  13195 C        1112.6565    7.7345  -99.1893 C.3    2199        0    0.0000
  13196 C        1113.0247    9.2175  -99.3084 C.3    2199        0    0.0000
  13197 H        1113.2841    7.2509  -98.4305 H      2199        0    0.0000
  13198 H        1112.8558    7.2202 -100.1376 H      2199        0    0.0000
  13199 H        1112.2590    9.7499  -99.8864 H      2199        0    0.0000
  13200 H        1113.0474    9.6805  -98.3140 H      2199        0    0.0000
  13201 C        1114.4167    9.4307  -99.9969 C.3    2200        0    0.0000
  13202 C        1115.2688   10.4783  -99.2721 C.3    2200        0    0.0000
  13203 H        1114.9467    8.4706 -100.0276 H      2200        0    0.0000
  13204 H        1114.2533    9.7338 -101.0385 H      2200        0    0.0000
  13205 H        1114.8125   11.4707  -99.3747 H      2200        0    0.0000
  13206 H        1115.3040   10.2572  -98.1982 H      2200        0    0.0000
  13207 C        1116.7349   10.5369  -99.8241 C.3    2201        0    0.0000
  13208 C        1117.4298   11.8609  -99.4878 C.3    2201        0    0.0000
  13209 H        1117.3037    9.6969  -99.4066 H      2201        0    0.0000
  13210 H        1116.7096   10.3908 -100.9112 H      2201        0    0.0000
  13211 H        1117.9021   12.2767 -100.3865 H      2201        0    0.0000
  13212 H        1116.6910   12.5984  -99.1504 H      2201        0    0.0000
  13213 C        1118.5211   11.6933  -98.3749 C.3    2202        0    0.0000
  13214 C        1119.1149   13.0366  -97.9366 C.3    2202        0    0.0000
  13215 H        1118.0729   11.1815  -97.5143 H      2202        0    0.0000
  13216 H        1119.3145   11.0371  -98.7536 H      2202        0    0.0000
  13217 H        1118.4388   13.8550  -98.2137 H      2202        0    0.0000
  13218 H        1119.2137   13.0658  -96.8444 H      2202        0    0.0000
  13219 C        1120.5201   13.3028  -98.5783 C.3    2203        0    0.0000
  13220 C        1121.1322   14.6268  -98.1076 C.3    2203        0    0.0000
  13221 H        1121.1876   12.4693  -98.3263 H      2203        0    0.0000
  13222 H        1120.4159   13.3039  -99.6703 H      2203        0    0.0000
  13223 H        1120.5975   15.4706  -98.5611 H      2203        0    0.0000
  13224 H        1121.0181   14.7287  -97.0212 H      2203        0    0.0000
  13225 C        1122.6534   14.7396  -98.4685 C.3    2204        0    0.0000
  13226 C        1123.1627   16.1833  -98.3934 C.3    2204        0    0.0000
  13227 H        1123.2274   14.1023  -97.7845 H      2204        0    0.0000
  13228 H        1122.8082   14.3383  -99.4777 H      2204        0    0.0000
  13229 H        1123.7209   16.4331  -99.3042 H      2204        0    0.0000
  13230 H        1122.3158   16.8787  -98.3422 H      2204        0    0.0000
  13231 C        1124.0890   16.4227  -97.1514 C.3    2205        0    0.0000
  13232 C        1124.7667   17.7969  -97.1886 C.3    2205        0    0.0000
  13233 H        1123.4889   16.3239  -96.2384 H      2205        0    0.0000
  13234 H        1124.8469   15.6304  -97.1176 H      2205        0    0.0000
  13235 H        1124.2858   18.4332  -97.9418 H      2205        0    0.0000
  13236 H        1124.6436   18.3033  -96.2233 H      2205        0    0.0000
  13237 C        1126.2968   17.6961  -97.5148 C.3    2206        0    0.0000
  13238 C        1127.0468   18.9923  -97.1888 C.3    2206        0    0.0000
  13239 H        1126.7250   16.8607  -96.9471 H      2206        0    0.0000
  13240 H        1126.4163   17.4493  -98.5769 H      2206        0    0.0000
  13241 H        1126.7865   19.7707  -97.9166 H      2206        0    0.0000
  13242 H        1126.7404   19.3667  -96.2041 H      2206        0    0.0000
  13243 C        1128.6021   18.7959  -97.1932 C.3    2207        0    0.0000
  13244 C        1129.3557   20.1271  -97.0984 C.3    2207        0    0.0000
  13245 H        1128.8788   18.1464  -96.3536 H      2207        0    0.0000
  13246 H        1128.8889   18.2656  -98.1097 H      2207        0    0.0000
  13247 H        1128.8263   20.9007  -97.6683 H      2207        0    0.0000
  13248 H        1129.3861   20.4688  -96.0564 H      2207        0    0.0000
  13249 C        1130.8237   20.0182  -97.6375 C.3    2208        0    0.0000
  13250 C        1131.7551   21.0551  -97.0000 C.3    2208        0    0.0000
  13251 H        1131.1981   19.0057  -97.4420 H      2208        0    0.0000
  13252 H        1130.8105   20.1441  -98.7273 H      2208        0    0.0000
  13253 H        1131.3215   21.4238  -96.0621 H      2208        0    0.0000
  13254 H        1132.7148   20.5904  -96.7421 H      2208        0    0.0000
  13255 C        1132.0227   22.2752  -97.9471 C.3    2209        0    0.0000
  13256 C        1132.3281   23.5594  -97.1680 C.3    2209        0    0.0000
  13257 H        1132.8607   22.0302  -98.6114 H      2209        0    0.0000
  13258 H        1131.1453   22.4241  -98.5886 H      2209        0    0.0000
  13259 H        1132.0653   24.4370  -97.7718 H      2209        0    0.0000
  13260 H        1131.7122   23.6049  -96.2614 H      2209        0    0.0000
  13261 C        1133.8379   23.6613  -96.7587 C.3    2210        0    0.0000
  13262 C        1134.1116   24.8584  -95.8417 C.3    2210        0    0.0000
  13263 H        1134.1324   22.7298  -96.2595 H      2210        0    0.0000
  13264 H        1134.4465   23.7372  -97.6682 H      2210        0    0.0000
  13265 H        1133.7723   25.7850  -96.3213 H      2210        0    0.0000
  13266 H        1133.5394   24.7578  -94.9110 H      2210        0    0.0000
  13267 C        1135.6320   25.0001  -95.4873 C.3    2211        0    0.0000
  13268 C        1135.9747   26.3919  -94.9448 C.3    2211        0    0.0000
  13269 H        1135.8960   24.2330  -94.7488 H      2211        0    0.0000
  13270 H        1136.2256   24.7899  -96.3857 H      2211        0    0.0000
  13271 H        1135.7559   27.1552  -95.7017 H      2211        0    0.0000
  13272 H        1135.3469   26.6217  -94.0750 H      2211        0    0.0000
  13273 C        1137.4806   26.5124  -94.5267 C.3    2212        0    0.0000
  13274 C        1137.9384   27.9711  -94.4173 C.3    2212        0    0.0000
  13275 H        1137.6233   26.0005  -93.5669 H      2212        0    0.0000
  13276 H        1138.0956   25.9793  -95.2624 H      2212        0    0.0000
  13277 H        1137.8717   28.4605  -95.3969 H      2212        0    0.0000
  13278 H        1137.2733   28.5244  -93.7428 H      2212        0    0.0000
  13279 C        1139.4095   28.0943  -93.8899 C.3    2213        0    0.0000
  13280 C        1139.8738   29.5521  -93.7991 C.3    2213        0    0.0000
  13281 H        1139.4729   27.6172  -92.9040 H      2213        0    0.0000
  13282 H        1140.0725   27.5291  -94.5565 H      2213        0    0.0000
  13283 H        1140.0642   29.9495  -94.8037 H      2213        0    0.0000
  13284 H        1139.0826   30.1722  -93.3597 H      2213        0    0.0000
  13285 C        1141.1749   29.7087  -92.9389 C.3    2214        0    0.0000
  13286 C        1141.8962   31.0331  -93.2124 C.3    2214        0    0.0000
  13287 H        1140.9076   29.6382  -91.8773 H      2214        0    0.0000
  13288 H        1141.8435   28.8653  -93.1519 H      2214        0    0.0000
  13289 H        1142.2942   31.0405  -94.2346 H      2214        0    0.0000
  13290 H        1141.1881   31.8681  -93.1440 H      2214        0    0.0000
  13291 C        1143.0743   31.2861  -92.2096 C.3    2215        0    0.0000
  13292 C        1143.7889   32.6156  -92.4763 C.3    2215        0    0.0000
  13293 H        1142.6777   31.2709  -91.1868 H      2215        0    0.0000
  13294 H        1143.7865   30.4549  -92.2836 H      2215        0    0.0000
  13295 H        1144.5961   32.4692  -93.2047 H      2215        0    0.0000
  13296 H        1143.0903   33.3354  -92.9207 H      2215        0    0.0000
  13297 C        1144.3932   33.2377  -91.1706 C.3    2216        0    0.0000
  13298 C        1145.5476   34.2015  -91.4666 C.3    2216        0    0.0000
  13299 H        1143.5968   33.7605  -90.6265 H      2216        0    0.0000
  13300 H        1144.7389   32.4254  -90.5190 H      2216        0    0.0000
  13301 H        1146.4226   33.6427  -91.8210 H      2216        0    0.0000
  13302 H        1145.2654   34.8897  -92.2729 H      2216        0    0.0000
  13303 C        1145.9595   35.0398  -90.2076 C.3    2217        0    0.0000
  13304 C        1147.0764   36.0427  -90.5174 C.3    2217        0    0.0000
  13305 H        1145.0750   35.5669  -89.8289 H      2217        0    0.0000
  13306 H        1146.2803   34.3527  -89.4149 H      2217        0    0.0000
  13307 H        1147.1193   36.2365  -91.5963 H      2217        0    0.0000
  13308 H        1146.8639   37.0038  -90.0330 H      2217        0    0.0000
  13309 C        1148.4801   35.5350  -90.0388 C.3    2218        0    0.0000
  13310 C        1149.5914   36.5538  -90.3154 C.3    2218        0    0.0000
  13311 H        1148.4297   35.3158  -88.9650 H      2218        0    0.0000
  13312 H        1148.7045   34.5873  -90.5436 H      2218        0    0.0000
  13313 H        1149.7888   36.6118  -91.3929 H      2218        0    0.0000
  13314 H        1149.2716   37.5544  -89.9993 H      2218        0    0.0000
  13315 C        1150.9258   36.1928  -89.5759 C.3    2219        0    0.0000
  13316 C        1151.7808   37.4307  -89.2829 C.3    2219        0    0.0000
  13317 H        1150.6825   35.6737  -88.6406 H      2219        0    0.0000
  13318 H        1151.4910   35.4828  -90.1924 H      2219        0    0.0000
  13319 H        1151.1584   38.3336  -89.3137 H      2219        0    0.0000
  13320 H        1152.1967   37.3693  -88.2696 H      2219        0    0.0000
  13321 C        1152.9592   37.5940  -90.3036 C.3    2220        0    0.0000
  13322 C        1153.4600   39.0402  -90.3862 C.3    2220        0    0.0000
  13323 H        1153.7792   36.9285  -90.0064 H      2220        0    0.0000
  13324 H        1152.6212   37.2561  -91.2910 H      2220        0    0.0000
  13325 H        1154.1254   39.1592  -91.2503 H      2220        0    0.0000
  13326 H        1152.6152   39.7225  -90.5428 H      2220        0    0.0000
  13327 C        1154.2294   39.4773  -89.0922 C.3    2221        0    0.0000
  13328 C        1155.0249   40.7710  -89.2986 C.3    2221        0    0.0000
  13329 H        1153.5063   39.6064  -88.2774 H      2221        0    0.0000
  13330 H        1154.9028   38.6657  -88.7901 H      2221        0    0.0000
  13331 H        1156.0496   40.6458  -88.9270 H      2221        0    0.0000
  13332 H        1155.1035   40.9976  -90.3690 H      2221        0    0.0000
  13333 C        1154.3693   41.9943  -88.5698 C.3    2222        0    0.0000
  13334 C        1155.4003   43.0599  -88.1817 C.3    2222        0    0.0000
  13335 H        1153.6069   42.4305  -89.2271 H      2222        0    0.0000
  13336 H        1153.8456   41.6342  -87.6756 H      2222        0    0.0000
  13337 H        1154.9174   44.0423  -88.1104 H      2222        0    0.0000
  13338 H        1155.8138   42.8395  -87.1898 H      2222        0    0.0000
  13339 C        1156.5786   43.1496  -89.2118 C.3    2223        0    0.0000
  13340 C        1157.6824   44.1074  -88.7498 C.3    2223        0    0.0000
  13341 H        1156.9919   42.1450  -89.3647 H      2223        0    0.0000
  13342 H        1156.1780   43.4760  -90.1796 H      2223        0    0.0000
  13343 H        1158.2408   44.4833  -89.6161 H      2223        0    0.0000
  13344 H        1157.2396   44.9816  -88.2567 H      2223        0    0.0000
  13345 C        1158.6864   43.4231  -87.7593 C.3    2224        0    0.0000
  13346 C        1159.8605   44.3394  -87.3971 C.3    2224        0    0.0000
  13347 H        1158.1438   43.1306  -86.8518 H      2224        0    0.0000
  13348 H        1159.0583   42.4977  -88.2161 H      2224        0    0.0000
  13349 H        1160.8035   43.7812  -87.4500 H      2224        0    0.0000
  13350 H        1159.9373   45.1575  -88.1240 H      2224        0    0.0000
  13351 C        1159.7156   44.9513  -85.9611 C.3    2225        0    0.0000
  13352 C        1160.7744   46.0223  -85.6767 C.3    2225        0    0.0000
  13353 H        1158.7106   45.3792  -85.8588 H      2225        0    0.0000
  13354 H        1159.7904   44.1431  -85.2232 H      2225        0    0.0000
  13355 H        1160.6094   46.4604  -84.6848 H      2225        0    0.0000
  13356 H        1161.7731   45.5685  -85.6584 H      2225        0    0.0000
  13357 C        1160.7605   47.1699  -86.7447 C.3    2226        0    0.0000
  13358 C        1161.7975   48.2573  -86.4425 C.3    2226        0    0.0000
  13359 H        1160.9492   46.7346  -87.7339 H      2226        0    0.0000
  13360 H        1159.7554   47.6081  -86.7798 H      2226        0    0.0000
  13361 H        1161.3440   49.2501  -86.5514 H      2226        0    0.0000
  13362 H        1162.1342   48.1770  -85.4013 H      2226        0    0.0000
  13363 C        1163.0464   48.1659  -87.3855 C.3    2227        0    0.0000
  13364 C        1164.2162   49.0203  -86.8847 C.3    2227        0    0.0000
  13365 H        1163.3541   47.1158  -87.4639 H      2227        0    0.0000
  13366 H        1162.7526   48.4841  -88.3934 H      2227        0    0.0000
  13367 H        1164.7528   49.4588  -87.7353 H      2227        0    0.0000
  13368 H        1163.8402   49.8577  -86.2839 H      2227        0    0.0000
  13369 C        1165.2290   48.1929  -86.0205 C.3    2228        0    0.0000
  13370 C        1165.8534   49.0293  -84.8981 C.3    2228        0    0.0000
  13371 H        1164.7068   47.3258  -85.5974 H      2228        0    0.0000
  13372 H        1166.0143   47.7984  -86.6771 H      2228        0    0.0000
  13373 H        1165.0803   49.6275  -84.4000 H      2228        0    0.0000
  13374 H        1166.2838   48.3709  -84.1332 H      2228        0    0.0000
  13375 C        1166.9736   49.9903  -85.4261 C.3    2229        0    0.0000
  13376 C        1167.5114   50.9145  -84.3280 C.3    2229        0    0.0000
  13377 H        1167.7896   49.3870  -85.8429 H      2229        0    0.0000
  13378 H        1166.5676   50.5856  -86.2534 H      2229        0    0.0000
  13379 H        1166.9095   51.8305  -84.2793 H      2229        0    0.0000
  13380 H        1167.4227   50.4268  -83.3492 H      2229        0    0.0000
  13381 C        1169.0107   51.3069  -84.5632 C.3    2230        0    0.0000
  13382 C        1169.3842   52.6192  -83.8650 C.3    2230        0    0.0000
  13383 H        1169.6503   50.4926  -84.2007 H      2230        0    0.0000
  13384 H        1169.1891   51.3910  -85.6424 H      2230        0    0.0000
  13385 H        1170.2131   53.1045  -84.3948 H      2230        0    0.0000
  13386 H        1168.5381   53.3166  -83.8976 H      2230        0    0.0000
  13387 C        1169.8002   52.3989  -82.3697 C.3    2231        0    0.0000
  13388 C        1170.0499   53.7210  -81.6356 C.3    2231        0    0.0000
  13389 H        1169.0103   51.8307  -81.8629 H      2231        0    0.0000
  13390 H        1170.7031   51.7767  -82.3418 H      2231        0    0.0000
  13391 H        1169.3690   54.4945  -82.0117 H      2231        0    0.0000
  13392 H        1169.8344   53.6041  -80.5663 H      2231        0    0.0000
  13393 C        1171.5258   54.2229  -81.8015 C.3    2232        0    0.0000
  13394 C        1171.6320   55.7500  -81.7251 C.3    2232        0    0.0000
  13395 H        1172.1453   53.7634  -81.0215 H      2232        0    0.0000
  13396 H        1171.9144   53.8666  -82.7635 H      2232        0    0.0000
  13397 H        1170.8171   56.2127  -82.2958 H      2232        0    0.0000
  13398 H        1171.5176   56.0835  -80.6861 H      2232        0    0.0000
  13399 C        1173.0000   56.2790  -82.2781 C.3    2233        0    0.0000
  13400 C        1173.7474   57.1389  -81.2529 C.3    2233        0    0.0000
  13401 H        1173.6180   55.4214  -82.5717 H      2233        0    0.0000
  13402 H        1172.8123   56.8590  -83.1901 H      2233        0    0.0000
  13403 H        1173.2399   58.1037  -81.1298 H      2233        0    0.0000
  13404 H        1173.7358   56.6493  -80.2712 H      2233        0    0.0000
  13405 C        1175.2360   57.4005  -81.6693 C.3    2234        0    0.0000
  13406 C        1175.8324   58.6203  -80.9582 C.3    2234        0    0.0000
  13407 H        1175.8291   56.5058  -81.4427 H      2234        0    0.0000
  13408 H        1175.2798   57.5402  -82.7566 H      2234        0    0.0000
  13409 H        1175.7666   59.5029  -81.6065 H      2234        0    0.0000
  13410 H        1175.2538   58.8491  -80.0547 H      2234        0    0.0000
  13411 C        1177.3314   58.3994  -80.5560 C.3    2235        0    0.0000
  13412 C        1177.8094   59.4176  -79.5149 C.3    2235        0    0.0000
  13413 H        1177.4463   57.3805  -80.1661 H      2235        0    0.0000
  13414 H        1177.9525   58.4637  -81.4579 H      2235        0    0.0000
  13415 H        1176.9476   59.8902  -79.0277 H      2235        0    0.0000
  13416 H        1178.3782   58.9100  -78.7258 H      2235        0    0.0000
  13417 C        1178.7087   60.5354  -80.1465 C.3    2236        0    0.0000
  13418 C        1179.0090   61.6672  -79.1576 C.3    2236        0    0.0000
  13419 H        1179.6450   60.0815  -80.4943 H      2236        0    0.0000
  13420 H        1178.2039   60.9357  -81.0343 H      2236        0    0.0000
  13421 H        1178.8964   62.6394  -79.6531 H      2236        0    0.0000
  13422 H        1178.2856   61.6481  -78.3331 H      2236        0    0.0000
  13423 C        1180.4559   61.5679  -78.5626 C.3    2237        0    0.0000
  13424 C        1181.0221   62.9399  -78.1801 C.3    2237        0    0.0000
  13425 H        1180.4324   60.9123  -77.6833 H      2237        0    0.0000
  13426 H        1181.1086   61.0837  -79.2993 H      2237        0    0.0000
  13427 H        1180.7246   63.6900  -78.9235 H      2237        0    0.0000
  13428 H        1180.6035   63.2651  -77.2196 H      2237        0    0.0000
  13429 C        1182.5859   62.9282  -78.0720 C.3    2238        0    0.0000
  13430 C        1183.1133   64.0405  -77.1590 C.3    2238        0    0.0000
  13431 H        1182.9070   61.9489  -77.6960 H      2238        0    0.0000
  13432 H        1183.0106   63.0340  -79.0780 H      2238        0    0.0000
  13433 H        1183.1442   64.9919  -77.7045 H      2238        0    0.0000
  13434 H        1182.4325   64.1855  -76.3110 H      2238        0    0.0000
  13435 C        1184.5472   63.7271  -76.6082 C.3    2239        0    0.0000
  13436 C        1185.3794   64.9970  -76.3987 C.3    2239        0    0.0000
  13437 H        1184.4509   63.1802  -75.6620 H      2239        0    0.0000
  13438 H        1185.0565   63.0550  -77.3100 H      2239        0    0.0000
  13439 H        1186.4232   64.8136  -76.6820 H      2239        0    0.0000
  13440 H        1185.0122   65.7991  -77.0508 H      2239        0    0.0000
  13441 C        1185.3391   65.4952  -74.9130 C.3    2240        0    0.0000
  13442 C        1185.9894   66.8729  -74.7446 C.3    2240        0    0.0000
  13443 H        1184.2946   65.5291  -74.5795 H      2240        0    0.0000
  13444 H        1185.8485   64.7589  -74.2791 H      2240        0    0.0000
  13445 H        1185.3766   67.6404  -75.2334 H      2240        0    0.0000
  13446 H        1186.0381   67.1385  -73.6813 H      2240        0    0.0000
  13447 C        1187.4369   66.9240  -75.3448 C.3    2241        0    0.0000
  13448 C        1188.0341   68.3348  -75.3013 C.3    2241        0    0.0000
  13449 H        1188.0756   66.2278  -74.7873 H      2241        0    0.0000
  13450 H        1187.4036   66.5614  -76.3796 H      2241        0    0.0000
  13451 H        1188.6526   68.5092  -76.1902 H      2241        0    0.0000
  13452 H        1187.2325   69.0835  -75.3233 H      2241        0    0.0000
  13453 C        1188.9099   68.5700  -74.0226 C.3    2242        0    0.0000
  13454 C        1189.5414   69.9663  -73.9998 C.3    2242        0    0.0000
  13455 H        1188.2837   68.4259  -73.1335 H      2242        0    0.0000
  13456 H        1189.6929   67.8025  -73.9841 H      2242        0    0.0000
  13457 H        1190.1949   70.0979  -74.8712 H      2242        0    0.0000
  13458 H        1188.7606   70.7335  -74.0730 H      2242        0    0.0000
  13459 C        1190.3778   70.2191  -72.6981 C.3    2243        0    0.0000
  13460 C        1190.9388   71.6440  -72.6357 C.3    2243        0    0.0000
  13461 H        1189.7408   70.0271  -71.8257 H      2243        0    0.0000
  13462 H        1191.1967   69.4902  -72.6568 H      2243        0    0.0000
  13463 H        1190.4974   72.2572  -73.4311 H      2243        0    0.0000
  13464 H        1190.6628   72.1156  -71.6843 H      2243        0    0.0000
  13465 C        1192.4995   71.6749  -72.7812 C.3    2244        0    0.0000
  13466 C        1193.1139   72.9439  -72.1802 C.3    2244        0    0.0000
  13467 H        1192.9178   70.7865  -72.2921 H      2244        0    0.0000
  13468 H        1192.7571   71.5996  -73.8450 H      2244        0    0.0000
  13469 H        1192.7062   73.8319  -72.6791 H      2244        0    0.0000
  13470 H        1192.8442   73.0267  -71.1200 H      2244        0    0.0000
  13471 C        1194.6761   72.9653  -72.3075 C.3    2245        0    0.0000
  13472 C        1195.2933   74.2185  -71.6768 C.3    2245        0    0.0000
  13473 H        1195.0823   72.0650  -71.8300 H      2245        0    0.0000
  13474 H        1194.9452   72.9073  -73.3695 H      2245        0    0.0000
  13475 H        1194.7532   75.1128  -72.0111 H      2245        0    0.0000
  13476 H        1195.1920   74.1789  -70.5851 H      2245        0    0.0000
  13477 C        1196.8103   74.3799  -72.0380 C.3    2246        0    0.0000
  13478 C        1197.5010   75.4469  -71.1816 C.3    2246        0    0.0000
  13479 H        1197.3098   73.4118  -71.9078 H      2246        0    0.0000
  13480 H        1196.8953   74.6378  -73.1009 H      2246        0    0.0000
  13481 H        1197.0120   76.4185  -71.3245 H      2246        0    0.0000
  13482 H        1197.4017   75.1977  -70.1178 H      2246        0    0.0000
  13483 C        1199.0232   75.5919  -71.5266 C.3    2247        0    0.0000
  13484 C        1199.6608   76.8062  -70.8425 C.3    2247        0    0.0000
  13485 H        1199.5432   74.6742  -71.2250 H      2247        0    0.0000
  13486 H        1199.1329   75.6729  -72.6152 H      2247        0    0.0000
  13487 H        1200.3130   77.3359  -71.5479 H      2247        0    0.0000
  13488 H        1198.8832   77.5174  -70.5375 H      2247        0    0.0000
  13489 C        1200.5010   76.4045  -69.5814 C.3    2248        0    0.0000
  13490 C        1200.5400   77.5194  -68.5304 C.3    2248        0    0.0000
  13491 H        1200.0728   75.4929  -69.1469 H      2248        0    0.0000
  13492 H        1201.5199   76.1528  -69.9008 H      2248        0    0.0000
  13493 H        1199.5505   77.9841  -68.4380 H      2248        0    0.0000
  13494 H        1200.7847   77.1006  -67.5465 H      2248        0    0.0000
  13495 C        1201.5892   78.6302  -68.8815 C.3    2249        0    0.0000
  13496 C        1201.9677   79.4781  -67.6619 C.3    2249        0    0.0000
  13497 H        1202.4839   78.1523  -69.2994 H      2249        0    0.0000
  13498 H        1201.1760   79.2703  -69.6708 H      2249        0    0.0000
  13499 H        1201.2250   80.2711  -67.5102 H      2249        0    0.0000
  13500 H        1201.9574   78.8595  -66.7560 H      2249        0    0.0000
  13501 C        1203.3839   80.1334  -67.8102 C.3    2250        0    0.0000
  13502 C        1203.5247   81.4086  -66.9714 C.3    2250        0    0.0000
  13503 H        1204.1450   79.4016  -67.5125 H      2250        0    0.0000
  13504 H        1203.5603   80.3584  -68.8693 H      2250        0    0.0000
  13505 H        1202.8168   82.1696  -67.3226 H      2250        0    0.0000
  13506 H        1203.2699   81.2004  -65.9249 H      2250        0    0.0000
  13507 C        1204.9746   82.0015  -67.0303 C.3    2251        0    0.0000
  13508 C        1205.3201   82.8167  -65.7793 C.3    2251        0    0.0000
  13509 H        1205.6888   81.1777  -67.1515 H      2251        0    0.0000
  13510 H        1205.0635   82.6298  -67.9252 H      2251        0    0.0000
  13511 H        1204.9229   83.8351  -65.8724 H      2251        0    0.0000
  13512 H        1204.8433   82.3720  -64.8970 H      2251        0    0.0000
  13513 C        1206.8657   82.8980  -65.5312 C.3    2252        0    0.0000
  13514 C        1207.3212   84.3140  -65.1617 C.3    2252        0    0.0000
  13515 H        1207.1328   82.1963  -64.7314 H      2252        0    0.0000
  13516 H        1207.3871   82.5590  -66.4349 H      2252        0    0.0000
  13517 H        1207.0923   85.0082  -65.9798 H      2252        0    0.0000
  13518 H        1206.7689   84.6695  -64.2830 H      2252        0    0.0000
  13519 C        1208.8571   84.3832  -64.8551 C.3    2253        0    0.0000
  13520 C        1209.2646   85.7213  -64.2288 C.3    2253        0    0.0000
  13521 H        1209.1208   83.5574  -64.1829 H      2253        0    0.0000
  13522 H        1209.4114   84.2198  -65.7876 H      2253        0    0.0000
  13523 H        1208.9912   86.5479  -64.8964 H      2253        0    0.0000
  13524 H        1208.7179   85.8798  -63.2910 H      2253        0    0.0000
  13525 C        1210.8027   85.7961  -63.9359 C.3    2254        0    0.0000
  13526 C        1211.2173   87.1507  -63.3510 C.3    2254        0    0.0000
  13527 H        1211.0702   84.9892  -63.2424 H      2254        0    0.0000
  13528 H        1211.3496   85.6053  -64.8674 H      2254        0    0.0000
  13529 H        1210.9012   87.9615  -64.0190 H      2254        0    0.0000
  13530 H        1210.7112   87.3173  -62.3920 H      2254        0    0.0000
  13531 C        1212.7657   87.2532  -63.1294 C.3    2255        0    0.0000
  13532 C        1213.1661   88.5510  -62.4191 C.3    2255        0    0.0000
  13533 H        1213.0974   86.3865  -62.5444 H      2255        0    0.0000
  13534 H        1213.2673   87.1870  -64.1028 H      2255        0    0.0000
  13535 H        1212.8350   89.4178  -63.0043 H      2255        0    0.0000
  13536 H        1212.6643   88.6175  -61.4459 H      2255        0    0.0000
  13537 C        1214.7147   88.6532  -62.1970 C.3    2256        0    0.0000
  13538 C        1215.1168   89.9583  -61.5012 C.3    2256        0    0.0000
  13539 H        1215.0441   87.7926  -61.6017 H      2256        0    0.0000
  13540 H        1215.2173   88.5748  -63.1690 H      2256        0    0.0000
  13541 H        1214.8008   90.8187  -62.1039 H      2256        0    0.0000
  13542 H        1214.6028   90.0439  -60.5359 H      2256        0    0.0000
  13543 C        1216.6631   90.0510  -61.2601 C.3    2257        0    0.0000
  13544 C        1217.0651   91.3555  -60.5629 C.3    2257        0    0.0000
  13545 H        1216.9794   89.1900  -60.6583 H      2257        0    0.0000
  13546 H        1217.1774   89.9666  -62.2255 H      2257        0    0.0000
  13547 H        1216.7434   92.2166  -61.1618 H      2257        0    0.0000
  13548 H        1216.5554   91.4371  -59.5948 H      2257        0    0.0000
  13549 C        1218.6122   91.4519  -60.3292 C.3    2258        0    0.0000
  13550 C        1219.0162   92.7653  -59.6506 C.3    2258        0    0.0000
  13551 H        1218.9312   90.5988  -59.7177 H      2258        0    0.0000
  13552 H        1219.1224   91.3552  -61.2955 H      2258        0    0.0000
  13553 H        1218.8635   93.6065  -60.3381 H      2258        0    0.0000
  13554 H        1218.3766   92.9507  -58.7789 H      2258        0    0.0000
  13555 C        1220.5135   92.7579  -59.1862 C.3    2259        0    0.0000
  13556 C        1220.9463   94.1061  -58.5997 C.3    2259        0    0.0000
  13557 H        1220.6490   91.9631  -58.4422 H      2259        0    0.0000
  13558 H        1221.1481   92.4991  -60.0428 H      2259        0    0.0000
  13559 H        1221.4131   93.9570  -57.6182 H      2259        0    0.0000
  13560 H        1221.7048   94.5699  -59.2423 H      2259        0    0.0000
  13561 C        1219.7430   95.0986  -58.4412 C.3    2260        0    0.0000
  13562 C        1220.1691   96.4333  -57.8197 C.3    2260        0    0.0000
  13563 H        1219.2931   95.2693  -59.4271 H      2260        0    0.0000
  13564 H        1218.9724   94.6239  -57.8213 H      2260        0    0.0000
  13565 H        1219.8856   97.2628  -58.4793 H      2260        0    0.0000
  13566 H        1219.6426   96.5913  -56.8705 H      2260        0    0.0000
  13567 C        1221.7134   96.5007  -57.5582 C.3    2261        0    0.0000
  13568 C        1222.1827   97.9183  -57.2128 C.3    2261        0    0.0000
  13569 H        1221.9642   95.8120  -56.7418 H      2261        0    0.0000
  13570 H        1222.2393   96.1371  -58.4497 H      2261        0    0.0000
  13571 H        1221.7000   98.6464  -57.8765 H      2261        0    0.0000
  13572 H        1221.8807   98.1757  -56.1900 H      2261        0    0.0000
  13573 C        1223.7375   98.0757  -57.3353 C.3    2262        0    0.0000
  13574 C        1224.4075   98.3027  -55.9755 C.3    2262        0    0.0000
  13575 H        1224.1476   97.1763  -57.8111 H      2262        0    0.0000
  13576 H        1223.9562   98.9150  -58.0071 H      2262        0    0.0000
  13577 H        1224.3422   99.3617  -55.6963 H      2262        0    0.0000
  13578 H        1223.8788   97.7387  -55.1971 H      2262        0    0.0000
  13579 C        1225.9147   97.8722  -55.9765 C.3    2263        0    0.0000
  13580 C        1226.8495   99.0294  -55.6078 C.3    2263        0    0.0000
  13581 H        1226.0459   97.0430  -55.2704 H      2263        0    0.0000
  13582 H        1226.1707   97.4837  -56.9700 H      2263        0    0.0000
  13583 H        1227.7292   99.0258  -56.2632 H      2263        0    0.0000
  13584 H        1226.3417   99.9887  -55.7673 H      2263        0    0.0000
  13585 C        1227.3295   98.9536  -54.1174 C.3    2264        0    0.0000
  13586 C        1228.1451  100.1845  -53.7066 C.3    2264        0    0.0000
  13587 H        1226.4514   98.8503  -53.4678 H      2264        0    0.0000
  13588 H        1227.9282   98.0440  -53.9845 H      2264        0    0.0000
  13589 H        1227.5063  101.0764  -53.7071 H      2264        0    0.0000
  13590 H        1228.5175  100.0642  -52.6818 H      2264        0    0.0000
  13591 C        1229.3636  100.4352  -54.6607 C.3    2265        0    0.0000
  13592 C        1230.0764  101.7576  -54.3574 C.3    2265        0    0.0000
  13593 H        1230.0664   99.5983  -54.5642 H      2265        0    0.0000
  13594 H        1229.0074  100.4292  -55.6983 H      2265        0    0.0000
  13595 H        1230.4957  102.1790  -55.2794 H      2265        0    0.0000
  13596 H        1229.3582  102.4926  -53.9732 H      2265        0    0.0000
  13597 C        1231.2303  101.5840  -53.3106 C.3    2266        0    0.0000
  13598 C        1232.0610  102.8614  -53.1447 C.3    2266        0    0.0000
  13599 H        1230.7933  101.2919  -52.3477 H      2266        0    0.0000
  13600 H        1231.8748  100.7550  -53.6287 H      2266        0    0.0000
  13601 H        1233.1294  102.6138  -53.1128 H      2266        0    0.0000
  13602 H        1231.9159  103.5196  -54.0102 H      2266        0    0.0000
  13603 C        1231.6859  103.6491  -51.8423 C.3    2267        0    0.0000
  13604 C        1232.7126  104.7358  -51.5046 C.3    2267        0    0.0000
  13605 H        1230.6932  104.0973  -51.9736 H      2267        0    0.0000
  13606 H        1231.6031  102.9384  -51.0106 H      2267        0    0.0000
  13607 H        1232.9448  105.3251  -52.4003 H      2267        0    0.0000
  13608 H        1232.2941  105.4332  -50.7684 H      2267        0    0.0000
  13609 C        1234.0447  104.1379  -50.9339 C.3    2268        0    0.0000
  13610 C        1235.1620  105.1838  -50.8508 C.3    2268        0    0.0000
  13611 H        1233.8467  103.7191  -49.9394 H      2268        0    0.0000
  13612 H        1234.3585  103.3018  -51.5710 H      2268        0    0.0000
  13613 H        1235.4211  105.5379  -51.8562 H      2268        0    0.0000
  13614 H        1234.8164  106.0595  -50.2876 H      2268        0    0.0000
  13615 C        1236.4540  104.6196  -50.1652 C.3    2269        0    0.0000
  13616 C        1237.3206  105.7283  -49.5579 C.3    2269        0    0.0000
  13617 H        1236.1581  103.9048  -49.3875 H      2269        0    0.0000
  13618 H        1237.0311  104.0555  -50.9084 H      2269        0    0.0000
  13619 H        1236.7186  106.6315  -49.3984 H      2269        0    0.0000
  13620 H        1237.6914  105.4189  -48.5729 H      2269        0    0.0000
  13621 C        1238.5448  106.0909  -50.4677 C.3    2270        0    0.0000
  13622 C        1238.9209  107.5736  -50.3715 C.3    2270        0    0.0000
  13623 H        1239.3987  105.4666  -50.1768 H      2270        0    0.0000
  13624 H        1238.3033  105.8306  -51.5057 H      2270        0    0.0000
  13625 H        1239.5369  107.8621  -51.2323 H      2270        0    0.0000
  13626 H        1238.0170  108.1941  -50.4090 H      2270        0    0.0000
  13627 C        1239.7061  107.9032  -49.0553 C.3    2271        0    0.0000
  13628 C        1240.4872  109.2179  -49.1587 C.3    2271        0    0.0000
  13629 H        1238.9944  107.9531  -48.2221 H      2271        0    0.0000
  13630 H        1240.3911  107.0750  -48.8354 H      2271        0    0.0000
  13631 H        1240.8303  109.3714  -50.1893 H      2271        0    0.0000
  13632 H        1239.8330  110.0642  -48.9151 H      2271        0    0.0000
  13633 C        1241.7292  109.2477  -48.2028 C.3    2272        0    0.0000
  13634 C        1242.1431  110.6763  -47.8326 C.3    2272        0    0.0000
  13635 H        1241.4913  108.6781  -47.2960 H      2272        0    0.0000
  13636 H        1242.5635  108.7290  -48.6910 H      2272        0    0.0000
  13637 H        1242.1833  111.3016  -48.7331 H      2272        0    0.0000
  13638 H        1241.3926  111.1256  -47.1704 H      2272        0    0.0000
  13639 C        1243.5389  110.7249  -47.1208 C.3    2273        0    0.0000
  13640 C        1244.1395  112.1350  -47.1158 C.3    2273        0    0.0000
  13641 H        1243.4241  110.3614  -46.0921 H      2273        0    0.0000
  13642 H        1244.2184  110.0283  -47.6271 H      2273        0    0.0000
  13643 H        1243.8962  112.6508  -48.0530 H      2273        0    0.0000
  13644 H        1243.6987  112.7289  -46.3056 H      2273        0    0.0000
  13645 C        1245.6970  112.1166  -46.9391 C.3    2274        0    0.0000
  13646 C        1246.1907  113.2393  -46.0199 C.3    2274        0    0.0000
  13647 H        1245.9957  111.1411  -46.5353 H      2274        0    0.0000
  13648 H        1246.1663  112.2055  -47.9269 H      2274        0    0.0000
  13649 H        1245.6365  114.1637  -46.2243 H      2274        0    0.0000
  13650 H        1245.9958  112.9803  -44.9718 H      2274        0    0.0000
  13651 C        1247.7231  113.5196  -46.1946 C.3    2275        0    0.0000
  13652 C        1248.2018  114.6905  -45.3292 C.3    2275        0    0.0000
  13653 H        1248.2804  112.6100  -45.9383 H      2275        0    0.0000
  13654 H        1247.9265  113.7260  -47.2526 H      2275        0    0.0000
  13655 H        1247.8164  115.6364  -45.7296 H      2275        0    0.0000
  13656 H        1247.8036  114.5936  -44.3116 H      2275        0    0.0000
  13657 C        1249.7654  114.7735  -45.2541 C.3    2276        0    0.0000
  13658 C        1250.2438  115.7825  -44.2043 C.3    2276        0    0.0000
  13659 H        1250.1617  113.7764  -45.0256 H      2276        0    0.0000
  13660 H        1250.1527  115.0475  -46.2432 H      2276        0    0.0000
  13661 H        1249.8235  116.7734  -44.4161 H      2276        0    0.0000
  13662 H        1249.8807  115.4921  -43.2106 H      2276        0    0.0000
  13663 C        1251.8065  115.8959  -44.1581 C.3    2277        0    0.0000
  13664 C        1252.2747  117.2332  -43.5740 C.3    2277        0    0.0000
  13665 H        1252.2039  115.0652  -43.5619 H      2277        0    0.0000
  13666 H        1252.2003  115.7708  -45.1744 H      2277        0    0.0000
  13667 H        1253.3209  117.4177  -43.8477 H      2277        0    0.0000
  13668 H        1251.6876  118.0561  -44.0001 H      2277        0    0.0000
  13669 C        1252.1458  117.2769  -42.0121 C.3    2278        0    0.0000
  13670 C        1252.9240  118.4456  -41.3975 C.3    2278        0    0.0000
  13671 H        1251.0839  117.3512  -41.7468 H      2278        0    0.0000
  13672 H        1252.5073  116.3264  -41.6007 H      2278        0    0.0000
  13673 H        1252.5118  119.3989  -41.7506 H      2278        0    0.0000
  13674 H        1252.8127  118.4390  -40.3062 H      2278        0    0.0000
  13675 C        1254.4506  118.3936  -41.7501 C.3    2279        0    0.0000
  13676 C        1255.1885  119.6681  -41.3260 C.3    2279        0    0.0000
  13677 H        1254.8972  117.5195  -41.2598 H      2279        0    0.0000
  13678 H        1254.5588  118.2380  -42.8307 H      2279        0    0.0000
  13679 H        1254.6582  120.5522  -41.7015 H      2279        0    0.0000
  13680 H        1255.2009  119.7493  -40.2321 H      2279        0    0.0000
  13681 C        1256.6648  119.7030  -41.8522 C.3    2280        0    0.0000
  13682 C        1257.4628  120.8731  -41.2663 C.3    2280        0    0.0000
  13683 H        1257.1520  118.7526  -41.6016 H      2280        0    0.0000
  13684 H        1256.6484  119.7697  -42.9471 H      2280        0    0.0000
  13685 H        1256.9194  121.8136  -41.4207 H      2280        0    0.0000
  13686 H        1257.5734  120.7474  -40.1821 H      2280        0    0.0000
  13687 C        1258.8872  121.0012  -41.9082 C.3    2281        0    0.0000
  13688 C        1259.7032  122.1409  -41.2884 C.3    2281        0    0.0000
  13689 H        1259.4175  120.0487  -41.7851 H      2281        0    0.0000
  13690 H        1258.7753  121.1623  -42.9875 H      2281        0    0.0000
  13691 H        1260.2966  122.6429  -42.0626 H      2281        0    0.0000
  13692 H        1259.0312  122.8983  -40.8661 H      2281        0    0.0000
  13693 C        1260.6677  121.6360  -40.1607 C.3    2282        0    0.0000
  13694 C        1261.2870  122.7908  -39.3658 C.3    2282        0    0.0000
  13695 H        1260.1090  120.9734  -39.4880 H      2282        0    0.0000
  13696 H        1261.4580  121.0274  -40.6175 H      2282        0    0.0000
  13697 H        1262.2788  122.5034  -38.9958 H      2282        0    0.0000
  13698 H        1261.4338  123.6604  -40.0182 H      2282        0    0.0000
  13699 C        1260.3975  123.2178  -38.1475 C.3    2283        0    0.0000
  13700 C        1260.5747  124.6975  -37.7891 C.3    2283        0    0.0000
  13701 H        1259.3468  123.0120  -38.3874 H      2283        0    0.0000
  13702 H        1260.6527  122.5888  -37.2856 H      2283        0    0.0000
  13703 H        1260.4868  125.3160  -38.6908 H      2283        0    0.0000
  13704 H        1259.7764  125.0178  -37.1082 H      2283        0    0.0000
  13705 C        1261.9600  124.9831  -37.1134 C.3    2284        0    0.0000
  13706 C        1262.5549  126.3255  -37.5531 C.3    2284        0    0.0000
  13707 H        1261.8319  124.9672  -36.0239 H      2284        0    0.0000
  13708 H        1262.6495  124.1667  -37.3614 H      2284        0    0.0000
  13709 H        1262.8760  126.2696  -38.6005 H      2284        0    0.0000
  13710 H        1261.7911  127.1111  -37.4992 H      2284        0    0.0000
  13711 C        1263.7793  126.7501  -36.6711 C.3    2285        0    0.0000
  13712 C        1265.0159  127.0807  -37.5143 C.3    2285        0    0.0000
  13713 H        1263.4941  127.6189  -36.0650 H      2285        0    0.0000
  13714 H        1264.0084  125.9382  -35.9697 H      2285        0    0.0000
  13715 H        1265.5543  126.1596  -37.7692 H      2285        0    0.0000
  13716 H        1264.7122  127.5408  -38.4628 H      2285        0    0.0000
  13717 C        1265.9982  128.0519  -36.7732 C.3    2286        0    0.0000
  13718 C        1267.4637  127.7788  -37.1293 C.3    2286        0    0.0000
  13719 H        1265.7349  129.0853  -37.0304 H      2286        0    0.0000
  13720 H        1265.8484  127.9485  -35.6914 H      2286        0    0.0000
  13721 H        1267.8123  126.8723  -36.6191 H      2286        0    0.0000
  13722 H        1267.5605  127.5913  -38.2059 H      2286        0    0.0000
  13723 C        1268.4023  128.9716  -36.7377 C.3    2287        0    0.0000
  13724 C        1269.6437  128.5058  -35.9688 C.3    2287        0    0.0000
  13725 H        1268.7020  129.5002  -37.6511 H      2287        0    0.0000
  13726 H        1267.8315  129.6869  -36.1327 H      2287        0    0.0000
  13727 H        1269.3746  128.2592  -34.9342 H      2287        0    0.0000
  13728 H        1270.0420  127.5876  -36.4181 H      2287        0    0.0000
  13729 C        1270.7742  129.5916  -35.9517 C.3    2288        0    0.0000
  13730 C        1271.2684  129.8935  -34.5327 C.3    2288        0    0.0000
  13731 H        1271.6078  129.2439  -36.5742 H      2288        0    0.0000
  13732 H        1270.3921  130.5073  -36.4197 H      2288        0    0.0000
  13733 H        1270.4553  130.3242  -33.9349 H      2288        0    0.0000
  13734 H        1271.5682  128.9640  -34.0330 H      2288        0    0.0000
  13735 C        1272.4819  130.8858  -34.5247 C.3    2289        0    0.0000
  13736 C        1273.0754  131.0664  -33.1231 C.3    2289        0    0.0000
  13737 H        1273.2496  130.5110  -35.2128 H      2289        0    0.0000
  13738 H        1272.1498  131.8537  -34.9201 H      2289        0    0.0000
  13739 H        1272.4315  131.7217  -32.5236 H      2289        0    0.0000
  13740 H        1273.1135  130.1010  -32.6035 H      2289        0    0.0000
  13741 C        1274.5192  131.6759  -33.1633 C.3    2290        0    0.0000
  13742 C        1274.6281  132.9663  -32.3434 C.3    2290        0    0.0000
  13743 H        1275.2288  130.9294  -32.7857 H      2290        0    0.0000
  13744 H        1274.7920  131.8699  -34.2080 H      2290        0    0.0000
  13745 H        1274.3682  133.8309  -32.9666 H      2290        0    0.0000
  13746 H        1273.9088  132.9474  -31.5151 H      2290        0    0.0000
  13747 C        1276.0669  133.1792  -31.7589 C.3    2291        0    0.0000
  13748 C        1276.6903  134.5021  -32.2176 C.3    2291        0    0.0000
  13749 H        1276.0116  133.1492  -30.6636 H      2291        0    0.0000
  13750 H        1276.7012  132.3382  -32.0654 H      2291        0    0.0000
  13751 H        1276.6309  134.5872  -33.3097 H      2291        0    0.0000
  13752 H        1276.1256  135.3472  -31.8045 H      2291        0    0.0000
  13753 C        1278.1903  134.6348  -31.7814 C.3    2292        0    0.0000
  13754 C        1278.6301  136.0972  -31.6509 C.3    2292        0    0.0000
  13755 H        1278.3279  134.1139  -30.8257 H      2292        0    0.0000
  13756 H        1278.8192  134.1170  -32.5160 H      2292        0    0.0000
  13757 H        1278.3115  136.6660  -32.5333 H      2292        0    0.0000
  13758 H        1278.1423  136.5607  -30.7843 H      2292        0    0.0000
  13759 C        1280.1832  136.2386  -31.4922 C.3    2293        0    0.0000
  13760 C        1280.5704  136.9874  -30.2121 C.3    2293        0    0.0000
  13761 H        1280.6312  135.2373  -31.4925 H      2293        0    0.0000
  13762 H        1280.5819  136.7625  -32.3697 H      2293        0    0.0000
  13763 H        1280.1407  137.9967  -30.2222 H      2293        0    0.0000
  13764 H        1280.1526  136.4758  -29.3361 H      2293        0    0.0000
  13765 C        1282.1244  137.1012  -30.0375 C.3    2294        0    0.0000
  13766 C        1282.5220  138.2590  -29.1152 C.3    2294        0    0.0000
  13767 H        1282.5055  136.1536  -29.6374 H      2294        0    0.0000
  13768 H        1282.5825  137.2330  -31.0256 H      2294        0    0.0000
  13769 H        1282.2089  139.2143  -29.5544 H      2294        0    0.0000
  13770 H        1282.0021  138.1692  -28.1533 H      2294        0    0.0000
  13771 C        1284.0668  138.3057  -28.8524 C.3    2295        0    0.0000
  13772 C        1284.5760  139.7348  -28.6346 C.3    2295        0    0.0000
  13773 H        1284.2950  137.6873  -27.9756 H      2295        0    0.0000
  13774 H        1284.5842  137.8477  -29.7044 H      2295        0    0.0000
  13775 H        1284.2780  140.3725  -29.4761 H      2295        0    0.0000
  13776 H        1284.1168  140.1647  -27.7357 H      2295        0    0.0000
  13777 C        1286.1353  139.7933  -28.4833 C.3    2296        0    0.0000
  13778 C        1286.5922  140.9845  -27.6339 C.3    2296        0    0.0000
  13779 H        1286.4822  138.8551  -28.0329 H      2296        0    0.0000
  13780 H        1286.5854  139.8488  -29.4821 H      2296        0    0.0000
  13781 H        1286.2346  141.9220  -28.0776 H      2296        0    0.0000
  13782 H        1286.1511  140.9225  -26.6311 H      2296        0    0.0000
  13783 C        1288.1523  141.0528  -27.4968 C.3    2297        0    0.0000
  13784 C        1288.6072  142.2196  -26.6131 C.3    2297        0    0.0000
  13785 H        1288.5127  140.1035  -27.0813 H      2297        0    0.0000
  13786 H        1288.5913  141.1455  -28.4978 H      2297        0    0.0000
  13787 H        1288.3649  143.1741  -27.0965 H      2297        0    0.0000
  13788 H        1288.0652  142.2028  -25.6595 H      2297        0    0.0000
  13789 C        1290.1466  142.1779  -26.3202 C.3    2298        0    0.0000
  13790 C        1290.8279  143.5219  -26.6003 C.3    2298        0    0.0000
  13791 H        1290.2994  141.8898  -25.2727 H      2298        0    0.0000
  13792 H        1290.6019  141.3903  -26.9333 H      2298        0    0.0000
  13793 H        1290.7275  143.7803  -27.6619 H      2298        0    0.0000
  13794 H        1290.3324  144.3201  -26.0338 H      2298        0    0.0000
  13795 C        1292.3499  143.5061  -26.2254 C.3    2299        0    0.0000
  13796 C        1292.8359  144.8663  -25.7130 C.3    2299        0    0.0000
  13797 H        1292.5184  142.7350  -25.4635 H      2299        0    0.0000
  13798 H        1292.9285  143.2082  -27.1086 H      2299        0    0.0000
  13799 H        1292.5099  145.6630  -26.3932 H      2299        0    0.0000
  13800 H        1292.3864  145.0828  -24.7359 H      2299        0    0.0000
  13801 C        1294.3965  144.9263  -25.5756 C.3    2300        0    0.0000
  13802 C        1294.8409  145.7241  -24.3447 C.3    2300        0    0.0000
  13803 H        1294.7861  143.9023  -25.5210 H      2300        0    0.0000
  13804 H        1294.8146  145.3745  -26.4854 H      2300        0    0.0000
  13805 H        1294.5887  146.7841  -24.4723 H      2300        0    0.0000
  13806 H        1294.3002  145.3765  -23.4557 H      2300        0    0.0000
  13807 C        1296.3811  145.5994  -24.0803 C.3    2301        0    0.0000
  13808 C        1297.0515  146.9655  -23.8975 C.3    2301        0    0.0000
  13809 H        1296.5376  144.9811  -23.1877 H      2301        0    0.0000
  13810 H        1296.8416  145.0636  -24.9195 H      2301        0    0.0000
  13811 H        1296.9537  147.5583  -24.8154 H      2301        0    0.0000
  13812 H        1296.5466  147.5290  -23.1032 H      2301        0    0.0000
  13813 C        1298.5720  146.8376  -23.5382 C.3    2302        0    0.0000
  13814 C        1299.3018  148.1835  -23.6125 C.3    2302        0    0.0000
  13815 H        1298.6627  146.4157  -22.5296 H      2302        0    0.0000
  13816 H        1299.0382  146.1188  -24.2235 H      2302        0    0.0000
  13817 H        1299.0255  148.7107  -24.5341 H      2302        0    0.0000
  13818 H        1298.9929  148.8252  -22.7780 H      2302        0    0.0000
  13819 C        1300.8600  148.0176  -23.5726 C.3    2303        0    0.0000
  13820 C        1301.4941  148.7690  -22.3969 C.3    2303        0    0.0000
  13821 H        1301.1002  146.9490  -23.5097 H      2303        0    0.0000
  13822 H        1301.2784  148.3793  -24.5200 H      2303        0    0.0000
  13823 H        1300.9850  149.7288  -22.2453 H      2303        0    0.0000
  13824 H        1301.3667  148.1949  -21.4708 H      2303        0    0.0000
  13825 C        1303.0227  149.0375  -22.6186 C.3    2304        0    0.0000
  13826 C        1303.6744  149.7165  -21.4091 C.3    2304        0    0.0000
  13827 H        1303.5222  148.0837  -22.8291 H      2304        0    0.0000
  13828 H        1303.1461  149.6618  -23.5123 H      2304        0    0.0000
  13829 H        1303.2181  150.6994  -21.2383 H      2304        0    0.0000
  13830 H        1303.4951  149.1242  -20.5033 H      2304        0    0.0000
  13831 C        1305.2202  149.9022  -21.5936 C.3    2305        0    0.0000
  13832 C        1305.8329  150.7889  -20.5038 C.3    2305        0    0.0000
  13833 H        1305.6980  148.9148  -21.5878 H      2305        0    0.0000
  13834 H        1305.4084  150.3377  -22.5827 H      2305        0    0.0000
  13835 H        1305.4376  151.8093  -20.5828 H      2305        0    0.0000
  13836 H        1305.5482  150.4167  -19.5119 H      2305        0    0.0000
  13837 C        1307.3970  150.8446  -20.5928 C.3    2306        0    0.0000
  13838 C        1307.9615  152.1712  -20.0728 C.3    2306        0    0.0000
  13839 H        1307.8137  150.0076  -20.0190 H      2306        0    0.0000
  13840 H        1307.6974  150.6914  -21.6368 H      2306        0    0.0000
  13841 H        1307.8270  152.9580  -20.8254 H      2306        0    0.0000
  13842 H        1307.4091  152.4911  -19.1805 H      2306        0    0.0000
  13843 C        1309.4844  152.0692  -19.7148 C.3    2307        0    0.0000
  13844 C        1310.1505  153.4457  -19.6128 C.3    2307        0    0.0000
  13845 H        1309.5890  151.5294  -18.7654 H      2307        0    0.0000
  13846 H        1309.9873  151.4635  -20.4787 H      2307        0    0.0000
  13847 H        1310.0132  154.0004  -20.5493 H      2307        0    0.0000
  13848 H        1309.6719  154.0377  -18.8229 H      2307        0    0.0000
  13849 C        1311.6847  153.3421  -19.3074 C.3    2308        0    0.0000
  13850 C        1312.3347  154.7180  -19.1245 C.3    2308        0    0.0000
  13851 H        1311.8251  152.7366  -18.4034 H      2308        0    0.0000
  13852 H        1312.1727  152.8015  -20.1277 H      2308        0    0.0000
  13853 H        1312.0942  155.3640  -19.9781 H      2308        0    0.0000
  13854 H        1311.9282  155.2105  -18.2325 H      2308        0    0.0000
  13855 C        1313.8933  154.6248  -18.9843 C.3    2309        0    0.0000
  13856 C        1314.4644  155.7378  -18.0987 C.3    2309        0    0.0000
  13857 H        1314.1527  153.6431  -18.5690 H      2309        0    0.0000
  13858 H        1314.3416  154.6724  -19.9843 H      2309        0    0.0000
  13859 H        1314.1920  156.7194  -18.5058 H      2309        0    0.0000
  13860 H        1314.0270  155.6809  -17.0942 H      2309        0    0.0000
  13861 C        1316.0249  155.6571  -17.9755 C.3    2310        0    0.0000
  13862 C        1316.6161  156.8824  -17.2697 C.3    2310        0    0.0000
  13863 H        1316.2898  154.7437  -17.4285 H      2310        0    0.0000
  13864 H        1316.4543  155.5582  -18.9802 H      2310        0    0.0000
  13865 H        1316.3605  157.7947  -17.8226 H      2310        0    0.0000
  13866 H        1316.1787  156.9875  -16.2691 H      2310        0    0.0000
  13867 C        1318.1753  156.7945  -17.1329 C.3    2311        0    0.0000
  13868 C        1318.7946  158.1221  -16.6823 C.3    2311        0    0.0000
  13869 H        1318.4233  156.0015  -16.4165 H      2311        0    0.0000
  13870 H        1318.5983  156.4906  -18.0983 H      2311        0    0.0000
  13871 H        1318.5201  158.9217  -17.3815 H      2311        0    0.0000
  13872 H        1318.3949  158.4100  -15.7020 H      2311        0    0.0000
  13873 C        1320.3577  158.0471  -16.5886 C.3    2312        0    0.0000
  13874 C        1320.9601  159.2904  -15.9250 C.3    2312        0    0.0000
  13875 H        1320.6354  157.1479  -16.0249 H      2312        0    0.0000
  13876 H        1320.7667  157.9245  -17.5991 H      2312        0    0.0000
  13877 H        1320.6748  160.1905  -16.4835 H      2312        0    0.0000
  13878 H        1320.5576  159.4080  -14.9112 H      2312        0    0.0000
  13879 C        1322.5240  159.2212  -15.8430 C.3    2313        0    0.0000
  13880 C        1323.1241  160.4496  -15.1504 C.3    2313        0    0.0000
  13881 H        1322.8097  158.3089  -15.3050 H      2313        0    0.0000
  13882 H        1322.9275  159.1274  -16.8588 H      2313        0    0.0000
  13883 H        1322.8564  161.3601  -15.7008 H      2313        0    0.0000
  13884 H        1322.7042  160.5558  -14.1425 H      2313        0    0.0000
  13885 C        1324.6859  160.3661  -15.0410 C.3    2314        0    0.0000
  13886 C        1325.3035  161.6745  -14.5355 C.3    2314        0    0.0000
  13887 H        1324.9495  159.5409  -14.3678 H      2314        0    0.0000
  13888 H        1325.0962  160.1123  -16.0262 H      2314        0    0.0000
  13889 H        1325.0199  162.5039  -15.1952 H      2314        0    0.0000
  13890 H        1324.9113  161.9157  -13.5397 H      2314        0    0.0000
  13891 C        1326.8677  161.6023  -14.4585 C.3    2315        0    0.0000
  13892 C        1327.4766  162.8576  -13.8240 C.3    2315        0    0.0000
  13893 H        1327.1527  160.7135  -13.8821 H      2315        0    0.0000
  13894 H        1327.2653  161.4620  -15.4712 H      2315        0    0.0000
  13895 H        1327.1725  163.7489  -14.3868 H      2315        0    0.0000
  13896 H        1327.0966  162.9851  -12.8028 H      2315        0    0.0000
  13897 C        1329.0425  162.7997  -13.7770 C.3    2316        0    0.0000
  13898 C        1329.6367  163.8828  -12.8700 C.3    2316        0    0.0000
  13899 H        1329.3491  161.8062  -13.4271 H      2316        0    0.0000
  13900 H        1329.4310  162.9084  -14.7971 H      2316        0    0.0000
  13901 H        1329.3206  164.8758  -13.2131 H      2316        0    0.0000
  13902 H        1329.2568  163.7672  -11.8473 H      2316        0    0.0000
  13903 C        1331.2032  163.8351  -12.8355 C.3    2317        0    0.0000
  13904 C        1331.8177  165.1910  -12.4710 C.3    2317        0    0.0000
  13905 H        1331.5178  163.0728  -12.1121 H      2317        0    0.0000
  13906 H        1331.5686  163.5081  -13.8169 H      2317        0    0.0000
  13907 H        1331.5552  165.9391  -13.2291 H      2317        0    0.0000
  13908 H        1331.4041  165.5479  -11.5196 H      2317        0    0.0000
  13909 C        1333.3792  165.1220  -12.3489 C.3    2318        0    0.0000
  13910 C        1333.9978  166.4881  -12.0328 C.3    2318        0    0.0000
  13911 H        1333.6409  164.4001  -11.5654 H      2318        0    0.0000
  13912 H        1333.7903  164.7310  -13.2878 H      2318        0    0.0000
  13913 H        1333.6321  167.2401  -12.7430 H      2318        0    0.0000
  13914 H        1333.6869  166.8201  -11.0346 H      2318        0    0.0000
  13915 C        1335.5642  166.4584  -12.0903 C.3    2319        0    0.0000
  13916 C        1336.2029  166.9904  -10.8025 C.3    2319        0    0.0000
  13917 H        1335.8917  165.4278  -12.2747 H      2319        0    0.0000
  13918 H        1335.8977  167.0536  -12.9493 H      2319        0    0.0000
  13919 H        1336.0437  168.0730  -10.7232 H      2319        0    0.0000
  13920 H        1335.7207  166.5362   -9.9281 H      2319        0    0.0000
  13921 C        1337.7419  166.6998  -10.7387 C.3    2320        0    0.0000
  13922 C        1338.5469  167.9270  -10.2969 C.3    2320        0    0.0000
  13923 H        1337.9159  165.8666  -10.0466 H      2320        0    0.0000
  13924 H        1338.0797  166.3643  -11.7271 H      2320        0    0.0000
  13925 H        1338.4438  168.7307  -11.0364 H      2320        0    0.0000
  13926 H        1338.1503  168.3164   -9.3510 H      2320        0    0.0000
  13927 C        1340.0696  167.6034  -10.1113 C.3    2321        0    0.0000
  13928 C        1340.9698  168.6111  -10.8345 C.3    2321        0    0.0000
  13929 H        1340.3008  167.5942   -9.0389 H      2321        0    0.0000
  13930 H        1340.2637  166.5901  -10.4842 H      2321        0    0.0000
  13931 H        1340.6654  168.7015  -11.8846 H      2321        0    0.0000
  13932 H        1340.8561  169.6061  -10.3867 H      2321        0    0.0000
  13933 C        1342.4823  168.2023  -10.7804 C.3    2322        0    0.0000
  13934 C        1343.3723  169.3365  -10.2603 C.3    2322        0    0.0000
  13935 H        1342.5868  167.3180  -10.1395 H      2322        0    0.0000
  13936 H        1342.8037  167.9026  -11.7855 H      2322        0    0.0000
  13937 H        1343.3563  170.1793  -10.9623 H      2322        0    0.0000
  13938 H        1342.9825  169.7134   -9.3066 H      2322        0    0.0000
  13939 C        1344.8574  168.8791  -10.0537 C.3    2323        0    0.0000
  13940 C        1345.7306  169.9911   -9.4620 C.3    2323        0    0.0000
  13941 H        1344.8688  168.0015   -9.3955 H      2323        0    0.0000
  13942 H        1345.2648  168.5543  -11.0191 H      2323        0    0.0000
  13943 H        1345.4189  170.9653   -9.8585 H      2323        0    0.0000
  13944 H        1345.5963  170.0361   -8.3741 H      2323        0    0.0000
  13945 C        1347.2522  169.7816   -9.7751 C.3    2324        0    0.0000
  13946 C        1348.1276  170.8819   -9.1651 C.3    2324        0    0.0000
  13947 H        1347.5601  168.8006   -9.3925 H      2324        0    0.0000
  13948 H        1347.3885  169.7523  -10.8632 H      2324        0    0.0000
  13949 H        1347.9955  171.8188   -9.7205 H      2324        0    0.0000
  13950 H        1347.8158  171.0813   -8.1323 H      2324        0    0.0000
  13951 C        1349.6484  170.5020   -9.1697 C.3    2325        0    0.0000
  13952 C        1350.4880  171.4561   -8.3130 C.3    2325        0    0.0000
  13953 H        1349.7571  169.4735   -8.8037 H      2325        0    0.0000
  13954 H        1350.0115  170.5079  -10.2050 H      2325        0    0.0000
  13955 H        1350.0911  172.4762   -8.3872 H      2325        0    0.0000
  13956 H        1350.4231  171.1688   -7.2563 H      2325        0    0.0000
  13957 C        1351.9961  171.4683   -8.7415 C.3    2326        0    0.0000
  13958 C        1352.7513  172.6755   -8.1746 C.3    2326        0    0.0000
  13959 H        1352.4672  170.5371   -8.4032 H      2326        0    0.0000
  13960 H        1352.0524  171.4699   -9.8371 H      2326        0    0.0000
  13961 H        1352.7966  173.4762   -8.9232 H      2326        0    0.0000
  13962 H        1352.2137  173.0831   -7.3095 H      2326        0    0.0000
  13963 C        1354.2114  172.3105   -7.7361 C.3    2327        0    0.0000
  13964 C        1354.8850  173.4459   -6.9577 C.3    2327        0    0.0000
  13965 H        1354.1797  171.4012   -7.1231 H      2327        0    0.0000
  13966 H        1354.7986  172.0673   -8.6303 H      2327        0    0.0000
  13967 H        1354.3777  174.3964   -7.1643 H      2327        0    0.0000
  13968 H        1354.7941  173.2681   -5.8789 H      2327        0    0.0000
  13969 C        1356.4033  173.5947   -7.3189 C.3    2328        0    0.0000
  13970 C        1356.9857  174.9295   -6.8415 C.3    2328        0    0.0000
  13971 H        1356.9568  172.7607   -6.8700 H      2328        0    0.0000
  13972 H        1356.5189  173.5010   -8.4058 H      2328        0    0.0000
  13973 H        1356.2621  175.7370   -7.0089 H      2328        0    0.0000
  13974 H        1357.1732  174.8934   -5.7612 H      2328        0    0.0000
  13975 C        1358.3237  175.2900   -7.5746 C.3    2329        0    0.0000
  13976 C        1359.4426  175.6578   -6.5938 C.3    2329        0    0.0000
  13977 H        1358.6301  174.4361   -8.1916 H      2329        0    0.0000
  13978 H        1358.1366  176.1242   -8.2620 H      2329        0    0.0000
  13979 H        1359.3076  176.6868   -6.2380 H      2329        0    0.0000
  13980 H        1359.3959  175.0100   -5.7097 H      2329        0    0.0000
  13981 C        1360.8651  175.5293   -7.2399 C.3    2330        0    0.0000
  13982 C        1361.9308  176.3045   -6.4574 C.3    2330        0    0.0000
  13983 H        1361.1351  174.4672   -7.2921 H      2330        0    0.0000
  13984 H        1360.8182  175.8935   -8.2737 H      2330        0    0.0000
  13985 H        1361.6249  177.3517   -6.3415 H      2330        0    0.0000
  13986 H        1362.0298  175.8913   -5.4460 H      2330        0    0.0000
  13987 C        1363.3318  176.2621   -7.1596 C.3    2331        0    0.0000
  13988 C        1364.4640  176.6994   -6.2238 C.3    2331        0    0.0000
  13989 H        1363.5153  175.2427   -7.5213 H      2331        0    0.0000
  13990 H        1363.3037  176.9100   -8.0444 H      2331        0    0.0000
  13991 H        1364.1066  176.7241   -5.1868 H      2331        0    0.0000
  13992 H        1365.2828  175.9700   -6.2575 H      2331        0    0.0000
  13993 C        1365.0306  178.1127   -6.5968 C.3    2332        0    0.0000
  13994 C        1365.8407  178.7338   -5.4534 C.3    2332        0    0.0000
  13995 H        1365.6564  178.0177   -7.4928 H      2332        0    0.0000
  13996 H        1364.1938  178.7696   -6.8650 H      2332        0    0.0000
  13997 H        1365.6278  179.8076   -5.3815 H      2332        0    0.0000
  13998 H        1365.5427  178.2886   -4.4961 H      2332        0    0.0000
  13999 C        1367.3843  178.5366   -5.6436 C.3    2333        0    0.0000
  14000 C        1368.1840  178.9974   -4.4199 C.3    2333        0    0.0000
  14001 H        1367.5829  177.4767   -5.8454 H      2333        0    0.0000
  14002 H        1367.7048  179.0922   -6.5335 H      2333        0    0.0000
  14003 H        1368.3372  180.0831   -4.4580 H      2333        0    0.0000
  14004 H        1367.6194  178.7909   -3.5021 H      2333        0    0.0000
  14005 C        1369.5808  178.2928   -4.3232 C.3    2334        0    0.0000
  14006 C        1370.7384  179.2973   -4.3077 C.3    2334        0    0.0000
  14007 H        1369.6045  177.6776   -3.4152 H      2334        0    0.0000
  14008 H        1369.6901  177.6061   -5.1719 H      2334        0    0.0000
  14009 H        1371.5538  178.9413   -4.9496 H      2334        0    0.0000
  14010 H        1370.4081  180.2581   -4.7218 H      2334        0    0.0000
  14011 C        1371.2992  179.5353   -2.8634 C.3    2335        0    0.0000
  14012 C        1372.4193  180.5813   -2.8402 C.3    2335        0    0.0000
  14013 H        1370.4755  179.8520   -2.2117 H      2335        0    0.0000
  14014 H        1371.6671  178.5815   -2.4652 H      2335        0    0.0000
  14015 H        1372.0115  181.5743   -3.0663 H      2335        0    0.0000
  14016 H        1372.8568  180.6418   -1.8359 H      2335        0    0.0000
  14017 C        1373.5573  180.2563   -3.8682 C.3    2336        0    0.0000
  14018 C        1374.4861  181.4524   -4.1038 C.3    2336        0    0.0000
  14019 H        1374.1338  179.3994   -3.4983 H      2336        0    0.0000
  14020 H        1373.0997  179.9432   -4.8149 H      2336        0    0.0000
  14021 H        1374.8373  181.4570   -5.1431 H      2336        0    0.0000
  14022 H        1373.9375  182.3903   -3.9525 H      2336        0    0.0000
  14023 C        1375.7302  181.4353   -3.1501 C.3    2337        0    0.0000
  14024 C        1376.8491  182.3620   -3.6385 C.3    2337        0    0.0000
  14025 H        1375.4087  181.7316   -2.1440 H      2337        0    0.0000
  14026 H        1376.1018  180.4060   -3.0719 H      2337        0    0.0000
  14027 H        1376.8922  182.3544   -4.7346 H      2337        0    0.0000
  14028 H        1376.6387  183.3961   -3.3387 H      2337        0    0.0000
  14029 C        1378.2520  181.9480   -3.0746 C.3    2338        0    0.0000
  14030 C        1379.1627  183.1577   -2.8373 C.3    2338        0    0.0000
  14031 H        1378.1075  181.3963   -2.1375 H      2338        0    0.0000
  14032 H        1378.7255  181.2532   -3.7795 H      2338        0    0.0000
  14033 H        1379.1763  183.7986   -3.7275 H      2338        0    0.0000
  14034 H        1378.7699  183.7687   -2.0151 H      2338        0    0.0000
  14035 C        1380.6334  182.7363   -2.4954 C.3    2339        0    0.0000
  14036 C        1381.6271  183.8875   -2.6865 C.3    2339        0    0.0000
  14037 H        1380.6670  182.3786   -1.4588 H      2339        0    0.0000
  14038 H        1380.9147  181.8873   -3.1308 H      2339        0    0.0000
  14039 H        1381.3346  184.4972   -3.5504 H      2339        0    0.0000
  14040 H        1381.6077  184.5501   -1.8124 H      2339        0    0.0000
  14041 C        1383.0934  183.3772   -2.9012 C.3    2340        0    0.0000
  14042 C        1384.1300  184.2948   -2.2433 C.3    2340        0    0.0000
  14043 H        1383.1777  182.3619   -2.4943 H      2340        0    0.0000
  14044 H        1383.2875  183.3020   -3.9783 H      2340        0    0.0000
  14045 H        1383.7822  185.3349   -2.2698 H      2340        0    0.0000
  14046 H        1384.2495  184.0294   -1.1854 H      2340        0    0.0000
  14047 C        1385.5286  184.2113   -2.9462 C.3    2341        0    0.0000
  14048 C        1386.5540  185.1588   -2.3138 C.3    2341        0    0.0000
  14049 H        1385.8898  183.1768   -2.8935 H      2341        0    0.0000
  14050 H        1385.4042  184.4477   -4.0103 H      2341        0    0.0000
  14051 H        1387.5587  184.9319   -2.6913 H      2341        0    0.0000
  14052 H        1386.3359  186.1949   -2.6008 H      2341        0    0.0000
  14053 C        1386.5680  185.0603   -0.7493 C.3    2342        0    0.0000
  14054 C        1387.2944  186.2431   -0.0994 C.3    2342        0    0.0000
  14055 H        1385.5331  185.0105   -0.3887 H      2342        0    0.0000
  14056 H        1387.0486  184.1180   -0.4585 H      2342        0    0.0000
  14057 H        1387.0526  187.1714   -0.6314 H      2342        0    0.0000
  14058 H        1386.9510  186.3736    0.9343 H      2342        0    0.0000
  14059 C        1388.8510  186.0543   -0.0945 C.3    2343        0    0.0000
  14060 C        1389.5891  187.3049   -0.5845 C.3    2343        0    0.0000
  14061 H        1389.1732  185.8018    0.9232 H      2343        0    0.0000
  14062 H        1389.1050  185.1952   -0.7277 H      2343        0    0.0000
  14063 H        1389.5100  187.3851   -1.6758 H      2343        0    0.0000
  14064 H        1389.1212  188.2054   -0.1677 H      2343        0    0.0000
  14065 C        1391.1056  187.2934   -0.1872 C.3    2344        0    0.0000
  14066 C        1391.9652  188.1176   -1.1520 C.3    2344        0    0.0000
  14067 H        1391.2068  187.6831    0.8333 H      2344        0    0.0000
  14068 H        1391.4572  186.2545   -0.1640 H      2344        0    0.0000
  14069 H        1391.9609  187.6563   -2.1474 H      2344        0    0.0000
  14070 H        1391.5411  189.1226   -1.2688 H      2344        0    0.0000
  14071 C        1393.4486  188.2489   -0.6621 C.3    2345        0    0.0000
  14072 C        1394.2966  189.1125   -1.6025 C.3    2345        0    0.0000
  14073 H        1393.4508  188.6784    0.3474 H      2345        0    0.0000
  14074 H        1393.8833  187.2453   -0.5785 H      2345        0    0.0000
  14075 H        1394.6157  188.5218   -2.4702 H      2345        0    0.0000
  14076 H        1393.6971  189.9450   -1.9915 H      2345        0    0.0000
  14077 C        1395.5674  189.6932   -0.8916 C.3    2346        0    0.0000
  14078 C        1396.8687  189.1649   -1.5053 C.3    2346        0    0.0000
  14079 H        1395.5388  190.7881   -0.9552 H      2346        0    0.0000
  14080 H        1395.5236  189.4383    0.1745 H      2346        0    0.0000
  14081 H        1396.9579  188.0862   -1.3269 H      2346        0    0.0000
  14082 H        1396.8551  189.3042   -2.5934 H      2346        0    0.0000
  14083 C        1398.1348  189.8804   -0.9200 C.3    2347        0    0.0000
  14084 C        1399.2683  188.8957   -0.6124 C.3    2347        0    0.0000
  14085 H        1398.4773  190.6359   -1.6378 H      2347        0    0.0000
  14086 H        1397.8469  190.4192   -0.0088 H      2347        0    0.0000
  14087 H        1398.9542  188.1929    0.1693 H      2347        0    0.0000
  14088 H        1399.4972  188.2957   -1.5019 H      2347        0    0.0000
  14089 C        1400.5757  189.6225   -0.1429 C.3    2348        0    0.0000
  14090 C        1401.8381  188.9873   -0.7360 C.3    2348        0    0.0000
  14091 H        1400.5155  190.6794   -0.4307 H      2348        0    0.0000
  14092 H        1400.6206  189.5965    0.9529 H      2348        0    0.0000
  14093 H        1402.1572  188.1379   -0.1194 H      2348        0    0.0000
  14094 H        1401.6245  188.5883   -1.7354 H      2348        0    0.0000
  14095 C        1403.0231  190.0081   -0.8420 C.3    2349        0    0.0000
  14096 C        1403.9827  189.9100    0.3491 C.3    2349        0    0.0000
  14097 H        1403.5653  189.8246   -1.7779 H      2349        0    0.0000
  14098 H        1402.6110  191.0226   -0.9104 H      2349        0    0.0000
  14099 H        1403.4254  190.0028    1.2896 H      2349        0    0.0000
  14100 H        1404.4640  188.9243    0.3642 H      2349        0    0.0000
  14101 C        1405.0942  191.0146    0.3092 C.3    2350        0    0.0000
  14102 C        1406.3896  190.5600    0.9908 C.3    2350        0    0.0000
  14103 H        1405.2922  191.2792   -0.7367 H      2350        0    0.0000
  14104 H        1404.7107  191.9199    0.7961 H      2350        0    0.0000
  14105 H        1406.3051  190.6807    2.0779 H      2350        0    0.0000
  14106 H        1406.5579  189.4920    0.8045 H      2350        0    0.0000
  14107 C        1407.6385  191.3633    0.4889 C.3    2351        0    0.0000
  14108 C        1408.5219  191.8459    1.6447 C.3    2351        0    0.0000
  14109 H        1408.2203  190.7257   -0.1883 H      2351        0    0.0000
  14110 H        1407.2935  192.2197   -0.1037 H      2351        0    0.0000
  14111 H        1408.0938  192.7514    2.0925 H      2351        0    0.0000
  14112 H        1408.5526  191.0873    2.4366 H      2351        0    0.0000
  14113 C        1409.9878  192.1549    1.1833 C.3    2352        0    0.0000
  14114 C        1410.6105  193.3167    1.9654 C.3    2352        0    0.0000
  14115 H        1410.5955  191.2499    1.3069 H      2352        0    0.0000
  14116 H        1409.9799  192.3850    0.1107 H      2352        0    0.0000
  14117 H        1410.1127  194.2579    1.7006 H      2352        0    0.0000
  14118 H        1410.4562  193.1710    3.0418 H      2352        0    0.0000
  14119 C        1412.1469  193.4625    1.6900 C.3    2353        0    0.0000
  14120 C        1412.6803  194.8425    2.0904 C.3    2353        0    0.0000
  14121 H        1412.6808  192.6785    2.2410 H      2353        0    0.0000
  14122 H        1412.3336  193.2817    0.6242 H      2353        0    0.0000
  14123 H        1412.3265  195.6024    1.3825 H      2353        0    0.0000
  14124 H        1412.2908  195.1248    3.0763 H      2353        0    0.0000
  14125 C        1414.2468  194.8838    2.1352 C.3    2354        0    0.0000
  14126 C        1414.8280  195.9293    1.1769 C.3    2354        0    0.0000
  14127 H        1414.5656  195.0972    3.1629 H      2354        0    0.0000
  14128 H        1414.6340  193.8882    1.8854 H      2354        0    0.0000
  14129 H        1414.1926  196.0182    0.2869 H      2354        0    0.0000
  14130 H        1414.8373  196.9156    1.6571 H      2354        0    0.0000
  14131 C        1416.2859  195.5742    0.7234 C.3    2355        0    0.0000
  14132 C        1417.3469  196.2138    1.6258 C.3    2355        0    0.0000
  14133 H        1416.4004  194.4832    0.7232 H      2355        0    0.0000
  14134 H        1416.4243  195.9057   -0.3132 H      2355        0    0.0000
  14135 H        1417.4690  197.2736    1.3699 H      2355        0    0.0000
  14136 H        1417.0215  196.1779    2.6728 H      2355        0    0.0000
  14137 C        1418.7378  195.5013    1.5044 C.3    2356        0    0.0000
  14138 C        1419.5786  195.6484    2.7773 C.3    2356        0    0.0000
  14139 H        1418.5731  194.4395    1.2831 H      2356        0    0.0000
  14140 H        1419.2770  195.9220    0.6466 H      2356        0    0.0000
  14141 H        1419.4716  196.6616    3.1840 H      2356        0    0.0000
  14142 H        1419.2161  194.9588    3.5496 H      2356        0    0.0000
  14143 C        1421.0991  195.3653    2.5209 C.3    2357        0    0.0000
  14144 C        1421.9651  196.6130    2.7271 C.3    2357        0    0.0000
  14145 H        1421.4279  194.5638    3.1939 H      2357        0    0.0000
  14146 H        1421.2209  194.9877    1.4981 H      2357        0    0.0000
  14147 H        1421.3694  197.5174    2.5525 H      2357        0    0.0000
  14148 H        1422.3142  196.6612    3.7660 H      2357        0    0.0000
  14149 C        1423.2098  196.6363    1.7743 C.3    2358        0    0.0000
  14150 C        1424.4955  197.0332    2.5082 C.3    2358        0    0.0000
  14151 H        1423.3265  195.6443    1.3207 H      2358        0    0.0000
  14152 H        1423.0135  197.3370    0.9534 H      2358        0    0.0000
  14153 H        1424.5315  198.1213    2.6424 H      2358        0    0.0000
  14154 H        1424.5073  196.5913    3.5122 H      2358        0    0.0000
  14155 C        1425.7832  196.5760    1.7399 C.3    2359        0    0.0000
  14156 C        1427.0691  197.0080    2.4532 C.3    2359        0    0.0000
  14157 H        1425.7616  195.4845    1.6315 H      2359        0    0.0000
  14158 H        1425.7571  196.9939    0.7259 H      2359        0    0.0000
  14159 H        1426.8583  197.8374    3.1394 H      2359        0    0.0000
  14160 H        1427.4551  196.1832    3.0650 H      2359        0    0.0000
  14161 C        1428.1849  197.4558    1.4471 C.3    2360        0    0.0000
  14162 C        1429.3641  198.1349    2.1521 C.3    2360        0    0.0000
  14163 H        1428.5343  196.5764    0.8920 H      2360        0    0.0000
  14164 H        1427.7434  198.1385    0.7104 H      2360        0    0.0000
  14165 H        1430.3113  197.7824    1.7257 H      2360        0    0.0000
  14166 H        1429.3279  199.2188    1.9865 H      2360        0    0.0000
  14167 C        1429.3718  197.8599    3.6956 C.3    2361        0    0.0000
  14168 C        1430.5016  198.6069    4.4130 C.3    2361        0    0.0000
  14169 H        1428.4011  198.1559    4.1123 H      2361        0    0.0000
  14170 H        1429.4700  196.7800    3.8619 H      2361        0    0.0000
  14171 H        1430.8470  199.4469    3.7980 H      2361        0    0.0000
  14172 H        1430.1318  199.0355    5.3528 H      2361        0    0.0000
  14173 C        1431.7229  197.6759    4.7284 C.3    2362        0    0.0000
  14174 C        1433.0587  198.3172    4.3367 C.3    2362        0    0.0000
  14175 H        1431.7192  197.4386    5.7995 H      2362        0    0.0000
  14176 H        1431.5907  196.7264    4.1950 H      2362        0    0.0000
  14177 H        1432.8895  199.3257    3.9395 H      2362        0    0.0000
  14178 H        1433.6958  198.4303    5.2228 H      2362        0    0.0000
  14179 C        1433.8304  197.4742    3.2638 C.3    2363        0    0.0000
  14180 C        1434.9548  198.2735    2.5959 C.3    2363        0    0.0000
  14181 H        1434.2411  196.5786    3.7462 H      2363        0    0.0000
  14182 H        1433.1163  197.1255    2.5075 H      2363        0    0.0000
  14183 H        1435.2554  199.1096    3.2393 H      2363        0    0.0000
  14184 H        1435.8413  197.6403    2.4675 H      2363        0    0.0000
  14185 C        1434.5311  198.8396    1.1968 C.3    2364        0    0.0000
  14186 C        1434.7955  200.3445    1.0747 C.3    2364        0    0.0000
  14187 H        1435.0778  198.2971    0.4154 H      2364        0    0.0000
  14188 H        1433.4658  198.6308    1.0388 H      2364        0    0.0000
  14189 H        1435.8743  200.5408    1.1107 H      2364        0    0.0000
  14190 H        1434.4408  200.7112    0.1036 H      2364        0    0.0000
  14191 C        1434.0944  201.1650    2.2118 C.3    2365        0    0.0000
  14192 C        1434.1863  202.6769    1.9783 C.3    2365        0    0.0000
  14193 H        1433.0431  200.8571    2.2731 H      2365        0    0.0000
  14194 H        1434.5555  200.9039    3.1723 H      2365        0    0.0000
  14195 H        1435.2264  203.0106    2.0799 H      2365        0    0.0000
  14196 H        1433.8765  202.9190    0.9542 H      2365        0    0.0000
  14197 C        1433.2953  203.4882    2.9809 C.3    2366        0    0.0000
  14198 C        1434.0969  204.0123    4.1774 C.3    2366        0    0.0000
  14199 H        1432.8306  204.3245    2.4442 H      2366        0    0.0000
  14200 H        1432.4781  202.8442    3.3286 H      2366        0    0.0000
  14201 H        1435.1228  203.6250    4.1416 H      2366        0    0.0000
  14202 H        1434.1714  205.1058    4.1305 H      2366        0    0.0000
  14203 C        1433.4518  203.6079    5.5478 C.3    2367        0    0.0000
  14204 C        1434.3634  202.6909    6.3708 C.3    2367        0    0.0000
  14205 H        1433.2249  204.5194    6.1145 H      2367        0    0.0000
  14206 H        1432.4934  203.1103    5.3544 H      2367        0    0.0000
  14207 H        1434.6544  201.8168    5.7750 H      2367        0    0.0000
  14208 H        1435.2899  203.2170    6.6315 H      2367        0    0.0000
  14209 C        1433.6746  202.1967    7.6895 C.3    2368        0    0.0000
  14210 C        1434.2108  200.8371    8.1507 C.3    2368        0    0.0000
  14211 H        1433.8311  202.9483    8.4732 H      2368        0    0.0000
  14212 H        1432.5919  202.1369    7.5220 H      2368        0    0.0000
  14213 H        1434.0813  200.7297    9.2349 H      2368        0    0.0000
  14214 H        1433.6364  200.0278    7.6830 H      2368        0    0.0000
  14215 C        1435.7273  200.6471    7.8019 C.3    2369        0    0.0000
  14216 C        1435.9825  199.3672    6.9983 C.3    2369        0    0.0000
  14217 H        1436.0724  201.5214    7.2362 H      2369        0    0.0000
  14218 H        1436.3049  200.6272    8.7344 H      2369        0    0.0000
  14219 H        1436.4580  198.6113    7.6357 H      2369        0    0.0000
  14220 H        1435.0306  198.9398    6.6593 H      2369        0    0.0000
  14221 C        1436.8955  199.6217    5.7498 C.3    2370        0    0.0000
  14222 C        1438.0875  198.6598    5.6960 C.3    2370        0    0.0000
  14223 H        1436.2888  199.5200    4.8413 H      2370        0    0.0000
  14224 H        1437.2504  200.6594    5.7768 H      2370        0    0.0000
  14225 H        1438.6594  198.7170    6.6304 H      2370        0    0.0000
  14226 H        1437.7327  197.6256    5.6066 H      2370        0    0.0000
  14227 C        1439.0476  198.9700    4.4961 C.3    2371        0    0.0000
  14228 C        1440.1975  199.9004    4.8978 C.3    2371        0    0.0000
  14229 H        1439.4468  198.0243    4.1091 H      2371        0    0.0000
  14230 H        1438.4644  199.4216    3.6841 H      2371        0    0.0000
  14231 H        1439.8665  200.5892    5.6851 H      2371        0    0.0000
  14232 H        1441.0250  199.3158    5.3183 H      2371        0    0.0000
  14233 C        1440.7347  200.7381    3.6866 C.3    2372        0    0.0000
  14234 C        1442.2552  200.9243    3.7379 C.3    2372        0    0.0000
  14235 H        1440.4485  200.2356    2.7543 H      2372        0    0.0000
  14236 H        1440.2361  201.7154    3.6836 H      2372        0    0.0000
  14237 H        1442.5425  201.4175    4.6747 H      2372        0    0.0000
  14238 H        1442.7542  199.9472    3.7304 H      2372        0    0.0000
  14239 C        1442.7908  201.7742    2.5345 C.3    2373        0    0.0000
  14240 C        1444.2999  202.0257    2.6270 C.3    2373        0    0.0000
  14241 H        1442.5531  201.2522    1.5994 H      2373        0    0.0000
  14242 H        1442.2512  202.7291    2.5082 H      2373        0    0.0000
  14243 H        1444.7520  201.3380    3.3526 H      2373        0    0.0000
  14244 H        1444.7754  201.8206    1.6599 H      2373        0    0.0000
  14245 C        1444.6318  203.4978    3.0514 C.3    2374        0    0.0000
  14246 C        1445.8649  203.5771    3.9581 C.3    2374        0    0.0000
  14247 H        1444.7903  204.0991    2.1475 H      2374        0    0.0000
  14248 H        1443.7600  203.9233    3.5638 H      2374        0    0.0000
  14249 H        1446.2664  204.5980    3.9587 H      2374        0    0.0000
  14250 H        1445.5854  203.3479    4.9940 H      2374        0    0.0000
  14251 C        1446.9967  202.5894    3.5096 C.3    2375        0    0.0000
  14252 C        1448.2838  202.7738    4.3210 C.3    2375        0    0.0000
  14253 H        1446.6301  201.5607    3.6142 H      2375        0    0.0000
  14254 H        1447.1991  202.7447    2.4426 H      2375        0    0.0000
  14255 H        1448.2939  203.7654    4.7902 H      2375        0    0.0000
  14256 H        1448.3236  202.0396    5.1353 H      2375        0    0.0000
  14257 C        1449.5698  202.6194    3.4381 C.3    2376        0    0.0000
  14258 C        1450.7252  203.4948    3.9361 C.3    2376        0    0.0000
  14259 H        1449.8718  201.5646    3.4345 H      2376        0    0.0000
  14260 H        1449.3208  202.8792    2.4018 H      2376        0    0.0000
  14261 H        1451.3560  203.8008    3.0921 H      2376        0    0.0000
  14262 H        1450.3329  204.4152    4.3860 H      2376        0    0.0000
  14263 C        1451.6177  202.7564    4.9923 C.3    2377        0    0.0000
  14264 C        1452.9557  203.4681    5.2210 C.3    2377        0    0.0000
  14265 H        1451.0632  202.6856    5.9362 H      2377        0    0.0000
  14266 H        1451.7919  201.7284    4.6512 H      2377        0    0.0000
  14267 H        1452.8231  204.5540    5.1388 H      2377        0    0.0000
  14268 H        1453.3177  203.2710    6.2377 H      2377        0    0.0000
  14269 C        1454.0527  203.0140    4.1974 C.3    2378        0    0.0000
  14270 C        1455.3958  203.7127    4.4372 C.3    2378        0    0.0000
  14271 H        1454.1764  201.9264    4.2707 H      2378        0    0.0000
  14272 H        1453.6963  203.2228    3.1812 H      2378        0    0.0000
  14273 H        1455.4386  204.1041    5.4613 H      2378        0    0.0000
  14274 H        1456.2172  202.9920    4.3409 H      2378        0    0.0000
  14275 C        1455.6389  204.8931    3.4345 C.3    2379        0    0.0000
  14276 C        1456.8722  205.7245    3.8042 C.3    2379        0    0.0000
  14277 H        1455.7522  204.4810    2.4241 H      2379        0    0.0000
  14278 H        1454.7466  205.5311    3.4164 H      2379        0    0.0000
  14279 H        1457.4724  205.9262    2.9082 H      2379        0    0.0000
  14280 H        1456.5632  206.6991    4.2023 H      2379        0    0.0000
  14281 C        1457.7751  205.0079    4.8666 C.3    2380        0    0.0000
  14282 C        1459.0658  205.7843    5.1504 C.3    2380        0    0.0000
  14283 H        1457.2001  204.8827    5.7926 H      2380        0    0.0000
  14284 H        1458.0142  204.0000    4.5054 H      2380        0    0.0000
  14285 H        1458.9519  206.8299    4.8392 H      2380        0    0.0000
  14286 H        1459.2679  205.7966    6.2287 H      2380        0    0.0000
  14287 C        1460.3041  205.1690    4.4114 C.3    2381        0    0.0000
  14288 C        1461.6121  205.8773    4.7812 C.3    2381        0    0.0000
  14289 H        1460.3704  204.1026    4.6602 H      2381        0    0.0000
  14290 H        1460.1362  205.2302    3.3290 H      2381        0    0.0000
  14291 H        1461.8076  206.6968    4.0786 H      2381        0    0.0000
  14292 H        1461.5261  206.3297    5.7768 H      2381        0    0.0000
  14293 C        1462.8387  204.9015    4.7735 C.3    2382        0    0.0000
  14294 C        1464.1659  205.6382    4.5610 C.3    2382        0    0.0000
  14295 H        1462.8606  204.3535    5.7236 H      2382        0    0.0000
  14296 H        1462.6921  204.1552    3.9828 H      2382        0    0.0000
  14297 H        1464.9493  204.9264    4.2734 H      2382        0    0.0000
  14298 H        1464.0709  206.3533    3.7345 H      2382        0    0.0000
  14299 C        1464.6299  206.4087    5.8449 C.3    2383        0    0.0000
  14300 C        1466.0358  206.9995    5.6914 C.3    2383        0    0.0000
  14301 H        1463.9078  207.2064    6.0587 H      2383        0    0.0000
  14302 H        1464.6021  205.7211    6.6994 H      2383        0    0.0000
  14303 H        1466.1794  207.8191    6.4061 H      2383        0    0.0000
  14304 H        1466.7910  206.2395    5.9275 H      2383        0    0.0000
  14305 C        1466.2982  207.5397    4.2434 C.3    2384        0    0.0000
  14306 C        1467.7428  208.0160    4.0541 C.3    2384        0    0.0000
  14307 H        1466.0664  206.7462    3.5224 H      2384        0    0.0000
  14308 H        1465.6013  208.3625    4.0413 H      2384        0    0.0000
  14309 H        1467.7526  209.0306    3.6369 H      2384        0    0.0000
  14310 H        1468.2515  208.0693    5.0245 H      2384        0    0.0000
  14311 C        1468.5601  207.0721    3.1063 C.3    2385        0    0.0000
  14312 C        1469.7777  206.4586    3.8064 C.3    2385        0    0.0000
  14313 H        1467.8971  206.2782    2.7405 H      2385        0    0.0000
  14314 H        1468.8805  207.6449    2.2273 H      2385        0    0.0000
  14315 H        1469.4506  205.7661    4.5919 H      2385        0    0.0000
  14316 H        1470.3655  205.8694    3.0917 H      2385        0    0.0000
  14317 C        1470.7056  207.5476    4.4473 C.3    2386        0    0.0000
  14318 C        1472.0414  206.9659    4.9230 C.3    2386        0    0.0000
  14319 H        1470.8818  208.3405    3.7098 H      2386        0    0.0000
  14320 H        1470.1766  208.0121    5.2887 H      2386        0    0.0000
  14321 H        1471.8682  206.0488    5.4996 H      2386        0    0.0000
  14322 H        1472.6573  206.6837    4.0600 H      2386        0    0.0000
  14323 C        1472.8473  207.9762    5.8102 C.3    2387        0    0.0000
  14324 C        1474.2427  208.2614    5.2441 C.3    2387        0    0.0000
  14325 H        1472.2761  208.9094    5.8910 H      2387        0    0.0000
  14326 H        1472.9291  207.5682    6.8251 H      2387        0    0.0000
  14327 H        1474.9913  208.2079    6.0441 H      2387        0    0.0000
  14328 H        1474.5135  207.4951    4.5073 H      2387        0    0.0000
  14329 C        1474.3307  209.6706    4.5631 C.3    2388        0    0.0000
  14330 C        1474.6643  209.5745    3.0702 C.3    2388        0    0.0000
  14331 H        1473.3749  210.1909    4.7021 H      2388        0    0.0000
  14332 H        1475.0922  210.2668    5.0811 H      2388        0    0.0000
  14333 H        1474.9213  210.5661    2.6777 H      2388        0    0.0000
  14334 H        1475.5459  208.9387    2.9219 H      2388        0    0.0000
  14335 C        1473.4745  208.9921    2.2318 C.3    2389        0    0.0000
  14336 C        1473.9498  208.3143    0.9419 C.3    2389        0    0.0000
  14337 H        1472.9226  208.2750    2.8521 H      2389        0    0.0000
  14338 H        1472.7776  209.8054    1.9946 H      2389        0    0.0000
  14339 H        1473.2844  208.5788    0.1107 H      2389        0    0.0000
  14340 H        1474.9496  208.6772    0.6727 H      2389        0    0.0000
  14341 C        1473.9977  206.7531    1.0738 C.3    2390        0    0.0000
  14342 C        1475.3799  206.2485    1.5029 C.3    2390        0    0.0000
  14343 H        1473.2394  206.4362    1.8005 H      2390        0    0.0000
  14344 H        1473.7168  206.3081    0.1111 H      2390        0    0.0000
  14345 H        1475.7278  205.4710    0.8116 H      2390        0    0.0000
  14346 H        1476.1107  207.0650    1.4524 H      2390        0    0.0000
  14347 C        1475.3739  205.6649    2.9578 C.3    2391        0    0.0000
  14348 C        1476.3497  204.4939    3.1179 C.3    2391        0    0.0000
  14349 H        1475.6299  206.4667    3.6615 H      2391        0    0.0000
  14350 H        1474.3551  205.3419    3.2051 H      2391        0    0.0000
  14351 H        1475.8835  203.5650    2.7669 H      2391        0    0.0000
  14352 H        1477.2377  204.6560    2.4942 H      2391        0    0.0000
  14353 C        1476.8058  204.2996    4.6052 C.3    2392        0    0.0000
  14354 C        1475.6246  204.3160    5.5817 C.3    2392        0    0.0000
  14355 H        1477.3486  203.3497    4.6874 H      2392        0    0.0000
  14356 H        1477.5182  205.0929    4.8631 H      2392        0    0.0000
  14357 H        1474.7589  204.8040    5.1168 H      2392        0    0.0000
  14358 H        1475.3181  203.2897    5.8187 H      2392        0    0.0000
  14359 C        1475.9681  205.0619    6.9171 C.3    2393        0    0.0000
  14360 C        1474.8744  204.8893    7.9767 C.3    2393        0    0.0000
  14361 H        1476.9243  204.6823    7.2982 H      2393        0    0.0000
  14362 H        1476.1162  206.1268    6.6993 H      2393        0    0.0000
  14363 H        1473.9211  204.6369    7.4958 H      2393        0    0.0000
  14364 H        1475.1230  204.0527    8.6414 H      2393        0    0.0000
  14365 C        1474.6769  206.1811    8.8426 C.3    2394        0    0.0000
  14366 C        1473.4974  206.0552    9.8131 C.3    2394        0    0.0000
  14367 H        1475.6018  206.3790    9.3984 H      2394        0    0.0000
  14368 H        1474.5231  207.0360    8.1724 H      2394        0    0.0000
  14369 H        1472.8160  205.2639    9.4765 H      2394        0    0.0000
  14370 H        1473.8574  205.7595   10.8064 H      2394        0    0.0000
  14371 C        1472.6915  207.3933    9.9455 C.3    2395        0    0.0000
  14372 C        1471.1913  207.1944    9.7026 C.3    2395        0    0.0000
  14373 H        1472.8586  207.8092   10.9469 H      2395        0    0.0000
  14374 H        1473.0950  208.1213    9.2308 H      2395        0    0.0000
  14375 H        1471.0143  206.9062    8.6591 H      2395        0    0.0000
  14376 H        1470.8154  206.3727   10.3247 H      2395        0    0.0000
  14377 C        1470.3619  208.4868   10.0176 C.3    2396        0    0.0000
  14378 C        1470.1132  209.3366    8.7665 C.3    2396        0    0.0000
  14379 H        1469.4061  208.1925   10.4686 H      2396        0    0.0000
  14380 H        1470.8981  209.0759   10.7719 H      2396        0    0.0000
  14381 H        1470.0330  208.6912    7.8831 H      2396        0    0.0000
  14382 H        1469.1575  209.8677    8.8565 H      2396        0    0.0000
  14383 C        1471.2531  210.3852    8.5242 C.3    2397        0    0.0000
  14384 C        1470.8069  211.5253    7.6022 C.3    2397        0    0.0000
  14385 H        1471.5742  210.7884    9.4927 H      2397        0    0.0000
  14386 H        1472.1210  209.8708    8.0935 H      2397        0    0.0000
  14387 H        1469.8607  211.2645    7.1121 H      2397        0    0.0000
  14388 H        1470.6179  212.4323    8.1897 H      2397        0    0.0000
  14389 C        1471.8737  211.8502    6.5004 C.3    2398        0    0.0000
  14390 C        1471.5973  213.1851    5.7999 C.3    2398        0    0.0000
  14391 H        1472.8676  211.8678    6.9646 H      2398        0    0.0000
  14392 H        1471.8834  211.0351    5.7662 H      2398        0    0.0000
  14393 H        1470.5343  213.2598    5.5387 H      2398        0    0.0000
  14394 H        1471.8140  214.0185    6.4796 H      2398        0    0.0000
  14395 C        1472.4514  213.3605    4.4971 C.3    2399        0    0.0000
  14396 C        1471.5856  213.3741    3.2324 C.3    2399        0    0.0000
  14397 H        1473.0227  214.2939    4.5718 H      2399        0    0.0000
  14398 H        1473.1843  212.5460    4.4423 H      2399        0    0.0000
  14399 H        1470.7106  214.0185    3.3825 H      2399        0    0.0000
  14400 H        1472.1508  213.8002    2.3942 H      2399        0    0.0000
  14401 C        1471.0942  211.9399    2.8334 C.3    2400        0    0.0000
  14402 C        1470.2715  211.9467    1.5402 C.3    2400        0    0.0000
  14403 H        1471.9675  211.2858    2.7201 H      2400        0    0.0000
  14404 H        1470.4973  211.5288    3.6568 H      2400        0    0.0000
  14405 H        1469.2220  212.1757    1.7633 H      2400        0    0.0000
  14406 H        1470.6309  212.7374    0.8699 H      2400        0    0.0000
  14407 C        1470.3398  210.5745    0.7854 C.3    2401        0    0.0000
  14408 C        1469.5870  210.6076   -0.5492 C.3    2401        0    0.0000
  14409 H        1471.3926  210.3156    0.6171 H      2401        0    0.0000
  14410 H        1469.9231  209.7934    1.4332 H      2401        0    0.0000
  14411 H        1468.7650  211.3324   -0.4995 H      2401        0    0.0000
  14412 H        1470.2562  210.9446   -1.3504 H      2401        0    0.0000
  14413 C        1469.0016  209.2057   -0.9360 C.3    2402        0    0.0000
  14414 C        1470.1001  208.1667   -1.1871 C.3    2402        0    0.0000
  14415 H        1468.3385  208.8651   -0.1311 H      2402        0    0.0000
  14416 H        1468.3781  209.3177   -1.8316 H      2402        0    0.0000
  14417 H        1470.5139  208.2929   -2.1953 H      2402        0    0.0000
  14418 H        1470.9292  208.3188   -0.4850 H      2402        0    0.0000
  14419 C        1469.5740  206.6977   -1.0370 C.3    2403        0    0.0000
  14420 C        1470.4983  205.8352   -0.1707 C.3    2403        0    0.0000
  14421 H        1468.5674  206.7254   -0.6012 H      2403        0    0.0000
  14422 H        1469.4728  206.2547   -2.0356 H      2403        0    0.0000
  14423 H        1471.1359  205.2099   -0.8079 H      2403        0    0.0000
  14424 H        1471.1696  206.4750    0.4155 H      2403        0    0.0000
  14425 C        1469.6998  204.9084    0.8096 C.3    2404        0    0.0000
  14426 C        1470.2682  203.4857    0.8563 C.3    2404        0    0.0000
  14427 H        1469.7188  205.3541    1.8119 H      2404        0    0.0000
  14428 H        1468.6489  204.8835    0.4955 H      2404        0    0.0000
  14429 H        1469.4733  202.7711    1.1032 H      2404        0    0.0000
  14430 H        1470.6521  203.2014   -0.1311 H      2404        0    0.0000
  14431 C        1471.4219  203.3411    1.9079 C.3    2405        0    0.0000
  14432 C        1471.0671  202.3566    3.0277 C.3    2405        0    0.0000
  14433 H        1472.3318  203.0114    1.3914 H      2405        0    0.0000
  14434 H        1471.6404  204.3295    2.3312 H      2405        0    0.0000
  14435 H        1469.9796  202.2204    3.0782 H      2405        0    0.0000
  14436 H        1471.4984  201.3712    2.8129 H      2405        0    0.0000
  14437 C        1471.5813  202.8390    4.4279 C.3    2406        0    0.0000
  14438 C        1470.5321  202.6493    5.5289 C.3    2406        0    0.0000
  14439 H        1472.4945  202.2855    4.6791 H      2406        0    0.0000
  14440 H        1471.8638  203.8966    4.3556 H      2406        0    0.0000
  14441 H        1469.9126  203.5504    5.6174 H      2406        0    0.0000
  14442 H        1469.8557  201.8266    5.2662 H      2406        0    0.0000
  14443 C        1471.1818  202.3438    6.9224 C.3    2407        0    0.0000
  14444 C        1470.1866  202.5101    8.0762 C.3    2407        0    0.0000
  14445 H        1471.5774  201.3206    6.9115 H      2407        0    0.0000
  14446 H        1472.0400  203.0119    7.0665 H      2407        0    0.0000
  14447 H        1469.3655  201.7903    7.9714 H      2407        0    0.0000
  14448 H        1470.6786  202.2903    9.0317 H      2407        0    0.0000
  14449 C        1469.5856  203.9567    8.1385 C.3    2408        0    0.0000
  14450 C        1468.3003  204.0162    8.9712 C.3    2408        0    0.0000
  14451 H        1470.3384  204.6346    8.5596 H      2408        0    0.0000
  14452 H        1469.3878  204.3017    7.1160 H      2408        0    0.0000
  14453 H        1467.5273  203.3848    8.5157 H      2408        0    0.0000
  14454 H        1468.4838  203.6145    9.9755 H      2408        0    0.0000
  14455 C        1467.7458  205.4765    9.1046 C.3    2409        0    0.0000
  14456 C        1466.7716  205.6229   10.2787 C.3    2409        0    0.0000
  14457 H        1468.5906  206.1654    9.2286 H      2409        0    0.0000
  14458 H        1467.2488  205.7531    8.1666 H      2409        0    0.0000
  14459 H        1465.7382  205.5210    9.9249 H      2409        0    0.0000
  14460 H        1466.9363  204.8187   11.0066 H      2409        0    0.0000
  14461 C        1466.9224  207.0027   11.0073 C.3    2410        0    0.0000
  14462 C        1466.0630  208.0964   10.3639 C.3    2410        0    0.0000
  14463 H        1466.6453  206.8781   12.0615 H      2410        0    0.0000
  14464 H        1467.9792  207.2970   10.9921 H      2410        0    0.0000
  14465 H        1465.1083  207.6746   10.0260 H      2410        0    0.0000
  14466 H        1465.8215  208.8693   11.1040 H      2410        0    0.0000
  14467 C        1466.7773  208.7719    9.1428 C.3    2411        0    0.0000
  14468 C        1465.9724  209.9467    8.5761 C.3    2411        0    0.0000
  14469 H        1467.7705  209.1141    9.4591 H      2411        0    0.0000
  14470 H        1466.9377  208.0156    8.3644 H      2411        0    0.0000
  14471 H        1464.9045  209.6965    8.5568 H      2411        0    0.0000
  14472 H        1466.0789  210.8239    9.2263 H      2411        0    0.0000
  14473 C        1466.4269  210.3339    7.1267 C.3    2412        0    0.0000
  14474 C        1466.3140  211.8399    6.8654 C.3    2412        0    0.0000
  14475 H        1467.4629  210.0035    6.9808 H      2412        0    0.0000
  14476 H        1465.8148  209.7800    6.4043 H      2412        0    0.0000
  14477 H        1465.2701  212.1617    6.9649 H      2412        0    0.0000
  14478 H        1466.8882  212.3962    7.6168 H      2412        0    0.0000
  14479 C        1466.8311  212.2360    5.4395 C.3    2413        0    0.0000
  14480 C        1466.8204  213.7525    5.2182 C.3    2413        0    0.0000
  14481 H        1467.8477  211.8442    5.3106 H      2413        0    0.0000
  14482 H        1466.2050  211.7416    4.6864 H      2413        0    0.0000
  14483 H        1465.7900  214.1067    5.0903 H      2413        0    0.0000
  14484 H        1467.2222  214.2643    6.1015 H      2413        0    0.0000
  14485 C        1467.6597  214.1759    3.9636 C.3    2414        0    0.0000
  14486 C        1467.0242  215.3484    3.2084 C.3    2414        0    0.0000
  14487 H        1468.6725  214.4430    4.2895 H      2414        0    0.0000
  14488 H        1467.7610  213.3102    3.2975 H      2414        0    0.0000
  14489 H        1466.3434  214.9726    2.4344 H      2414        0    0.0000
  14490 H        1466.4181  215.9532    3.8941 H      2414        0    0.0000
  14491 C        1468.0964  216.2715    2.5334 C.3    2415        0    0.0000
  14492 C        1468.7584  215.6040    1.3229 C.3    2415        0    0.0000
  14493 H        1467.6147  217.2090    2.2293 H      2415        0    0.0000
  14494 H        1468.8561  216.5352    3.2797 H      2415        0    0.0000
  14495 H        1468.5636  214.5245    1.3354 H      2415        0    0.0000
  14496 H        1468.3219  215.9920    0.3940 H      2415        0    0.0000
  14497 C        1470.3081  215.8378    1.2891 C.3    2416        0    0.0000
  14498 C        1470.7941  216.3125   -0.0848 C.3    2416        0    0.0000
  14499 H        1470.5710  216.5759    2.0569 H      2416        0    0.0000
  14500 H        1470.8127  214.9034    1.5644 H      2416        0    0.0000
  14501 H        1469.9581  216.7401   -0.6523 H      2416        0    0.0000
  14502 H        1471.5356  217.1120    0.0342 H      2416        0    0.0000
  14503 C        1471.4326  215.1516   -0.9228 C.3    2417        0    0.0000
  14504 C        1472.9368  215.0085   -0.6652 C.3    2417        0    0.0000
  14505 H        1470.9181  214.2143   -0.6776 H      2417        0    0.0000
  14506 H        1471.2499  215.3422   -1.9876 H      2417        0    0.0000
  14507 H        1473.4403  215.9685   -0.8341 H      2417        0    0.0000
  14508 H        1473.1147  214.7397    0.3834 H      2417        0    0.0000
  14509 C        1473.5963  213.9232   -1.5842 C.3    2418        0    0.0000
  14510 C        1474.7589  213.2043   -0.8914 C.3    2418        0    0.0000
  14511 H        1472.8289  213.1977   -1.8813 H      2418        0    0.0000
  14512 H        1473.9473  214.4055   -2.5050 H      2418        0    0.0000
  14513 H        1475.4620  213.9379   -0.4780 H      2418        0    0.0000
  14514 H        1474.3857  212.6141   -0.0453 H      2418        0    0.0000
  14515 C        1475.5356  212.2540   -1.8668 C.3    2419        0    0.0000
  14516 C        1476.6080  211.4309   -1.1447 C.3    2419        0    0.0000
  14517 H        1474.8164  211.5868   -2.3578 H      2419        0    0.0000
  14518 H        1475.9954  212.8589   -2.6583 H      2419        0    0.0000
  14519 H        1476.3234  210.3716   -1.1309 H      2419        0    0.0000
  14520 H        1477.5594  211.4943   -1.6873 H      2419        0    0.0000
  14521 C        1476.8344  211.9128    0.3297 C.3    2420        0    0.0000
  14522 C        1478.0443  211.2357    0.9829 C.3    2420        0    0.0000
  14523 H        1476.9674  213.0018    0.3294 H      2420        0    0.0000
  14524 H        1475.9277  211.7063    0.9122 H      2420        0    0.0000
  14525 H        1478.0122  210.1539    0.8035 H      2420        0    0.0000
  14526 H        1478.9722  211.6033    0.5275 H      2420        0    0.0000
  14527 C        1478.1047  211.4899    2.5287 C.3    2421        0    0.0000
  14528 C        1478.9537  210.4421    3.2569 C.3    2421        0    0.0000
  14529 H        1478.5117  212.4933    2.7063 H      2421        0    0.0000
  14530 H        1477.0829  211.4895    2.9274 H      2421        0    0.0000
  14531 H        1478.7284  209.4405    2.8700 H      2421        0    0.0000
  14532 H        1480.0189  210.6216    3.0652 H      2421        0    0.0000
  14533 C        1478.7104  210.4521    4.8055 C.3    2422        0    0.0000
  14534 C        1479.6892  209.5403    5.5534 C.3    2422        0    0.0000
  14535 H        1478.8020  211.4826    5.1711 H      2422        0    0.0000
  14536 H        1477.6780  210.1385    5.0033 H      2422        0    0.0000
  14537 H        1479.7814  208.5794    5.0320 H      2422        0    0.0000
  14538 H        1480.6897  209.9904    5.5636 H      2422        0    0.0000
  14539 C        1479.2407  209.2724    7.0313 C.3    2423        0    0.0000
  14540 C        1480.4301  209.2011    7.9954 C.3    2423        0    0.0000
  14541 H        1478.5522  210.0682    7.3417 H      2423        0    0.0000
  14542 H        1478.6731  208.3343    7.0642 H      2423        0    0.0000
  14543 H        1480.7504  210.2131    8.2729 H      2423        0    0.0000
  14544 H        1480.1320  208.6993    8.9242 H      2423        0    0.0000
  14545 C        1481.6510  208.4365    7.3773 C.3    2424        0    0.0000
  14546 C        1482.9930  209.0093    7.8464 C.3    2424        0    0.0000
  14547 H        1481.5789  207.3761    7.6495 H      2424        0    0.0000
  14548 H        1481.5826  208.4864    6.2835 H      2424        0    0.0000
  14549 H        1482.8550  209.5805    8.7727 H      2424        0    0.0000
  14550 H        1483.6890  208.1940    8.0799 H      2424        0    0.0000
  14551 C        1483.6497  209.9417    6.7708 C.3    2425        0    0.0000
  14552 C        1485.1792  209.9540    6.8686 C.3    2425        0    0.0000
  14553 H        1483.3392  209.6049    5.7740 H      2425        0    0.0000
  14554 H        1483.2565  210.9580    6.8965 H      2425        0    0.0000
  14555 H        1485.4918  210.4084    7.8169 H      2425        0    0.0000
  14556 H        1485.5642  208.9267    6.8692 H      2425        0    0.0000
  14557 C        1485.8436  210.7419    5.6873 C.3    2426        0    0.0000
  14558 C        1486.8059  211.8275    6.1818 C.3    2426        0    0.0000
  14559 H        1486.3770  210.0311    5.0439 H      2426        0    0.0000
  14560 H        1485.0535  211.1912    5.0732 H      2426        0    0.0000
  14561 H        1486.7081  212.7274    5.5619 H      2426        0    0.0000
  14562 H        1486.5470  212.1212    7.2066 H      2426        0    0.0000
  14563 C        1488.3003  211.3546    6.1538 C.3    2427        0    0.0000
  14564 C        1489.2738  212.4844    6.5078 C.3    2427        0    0.0000
  14565 H        1488.4204  210.5207    6.8564 H      2427        0    0.0000
  14566 H        1488.5280  210.9608    5.1555 H      2427        0    0.0000
  14567 H        1489.3422  213.1963    5.6759 H      2427        0    0.0000
  14568 H        1488.8999  213.0458    7.3730 H      2427        0    0.0000
  14569 C        1490.7107  211.9497    6.8348 C.3    2428        0    0.0000
  14570 C        1491.7423  212.3771    5.7849 C.3    2428        0    0.0000
  14571 H        1491.0076  212.3166    7.8250 H      2428        0    0.0000
  14572 H        1490.6737  210.8554    6.9022 H      2428        0    0.0000
  14573 H        1491.2789  212.4027    4.7908 H      2428        0    0.0000
  14574 H        1492.0934  213.3949    5.9952 H      2428        0    0.0000
  14575 C        1492.9790  211.4149    5.7411 C.3    2429        0    0.0000
  14576 C        1493.7537  211.5242    4.4231 C.3    2429        0    0.0000
  14577 H        1493.6389  211.6485    6.5857 H      2429        0    0.0000
  14578 H        1492.6311  210.3849    5.8887 H      2429        0    0.0000
  14579 H        1494.0383  210.5252    4.0701 H      2429        0    0.0000
  14580 H        1493.1149  211.9626    3.6465 H      2429        0    0.0000
  14581 C        1495.0477  212.3975    4.5653 C.3    2430        0    0.0000
  14582 C        1496.3275  211.5605    4.4621 C.3    2430        0    0.0000
  14583 H        1495.0399  213.1704    3.7868 H      2430        0    0.0000
  14584 H        1495.0171  212.9207    5.5291 H      2430        0    0.0000
  14585 H        1496.2227  210.6392    5.0483 H      2430        0    0.0000
  14586 H        1496.4943  211.2548    3.4218 H      2430        0    0.0000
  14587 C        1497.5898  212.3404    4.9680 C.3    2431        0    0.0000
  14588 C        1498.0330  211.8858    6.3631 C.3    2431        0    0.0000
  14589 H        1498.4059  212.1969    4.2489 H      2431        0    0.0000
  14590 H        1497.3625  213.4137    4.9767 H      2431        0    0.0000
  14591 H        1497.2028  211.3853    6.8769 H      2431        0    0.0000
  14592 H        1498.8417  211.1493    6.2796 H      2431        0    0.0000
  14593 C        1498.5277  213.0813    7.2482 C.3    2432        0    0.0000
  14594 C        1497.6837  213.2537    8.5159 C.3    2432        0    0.0000
  14595 H        1499.5780  212.9121    7.5159 H      2432        0    0.0000
  14596 H        1498.4991  214.0002    6.6495 H      2432        0    0.0000
  14597 H        1496.9386  212.4514    8.5836 H      2432        0    0.0000
  14598 H        1498.3197  213.1688    9.4057 H      2432        0    0.0000
  14599 C        1496.9436  214.6350    8.5537 C.3    2433        0    0.0000
  14600 C        1495.4395  214.4814    8.8047 C.3    2433        0    0.0000
  14601 H        1497.3942  215.2563    9.3375 H      2433        0    0.0000
  14602 H        1497.1152  215.1543    7.6026 H      2433        0    0.0000
  14603 H        1495.1182  213.4632    8.5525 H      2433        0    0.0000
  14604 H        1495.2189  214.6268    9.8694 H      2433        0    0.0000
  14605 C        1494.5906  215.5005    7.9689 C.3    2434        0    0.0000
  14606 C        1494.4398  216.8505    8.6787 C.3    2434        0    0.0000
  14607 H        1495.0685  215.6409    6.9914 H      2434        0    0.0000
  14608 H        1493.6027  215.0641    7.7768 H      2434        0    0.0000
  14609 H        1493.8805  217.5490    8.0439 H      2434        0    0.0000
  14610 H        1493.8582  216.7279    9.6007 H      2434        0    0.0000
  14611 C        1495.8251  217.4915    9.0365 C.3    2435        0    0.0000
  14612 C        1496.3978  218.3195    7.8810 C.3    2435        0    0.0000
  14613 H        1495.7039  218.1213    9.9266 H      2435        0    0.0000
  14614 H        1496.5248  216.6918    9.3094 H      2435        0    0.0000
  14615 H        1495.6252  218.4893    7.1208 H      2435        0    0.0000
  14616 H        1496.7059  219.3081    8.2433 H      2435        0    0.0000
  14617 C        1497.6285  217.6232    7.2040 C.3    2436        0    0.0000
  14618 C        1497.7969  218.0382    5.7382 C.3    2436        0    0.0000
  14619 H        1498.5330  217.8736    7.7721 H      2436        0    0.0000
  14620 H        1497.5027  216.5358    7.2751 H      2436        0    0.0000
  14621 H        1496.8187  218.2665    5.2972 H      2436        0    0.0000
  14622 H        1498.3937  218.9564    5.6734 H      2436        0    0.0000
  14623 C        1498.4897  216.9234    4.8810 C.3    2437        0    0.0000
  14624 C        1498.4308  217.2247    3.3794 C.3    2437        0    0.0000
  14625 H        1499.5334  216.8262    5.2045 H      2437        0    0.0000
  14626 H        1498.0039  215.9626    5.0913 H      2437        0    0.0000
  14627 H        1497.3873  217.2543    3.0424 H      2437        0    0.0000
  14628 H        1498.8551  218.2161    3.1777 H      2437        0    0.0000
  14629 C        1499.2067  216.1607    2.5291 C.3    2438        0    0.0000
  14630 C        1498.2655  215.2902    1.6890 C.3    2438        0    0.0000
  14631 H        1499.9200  216.6805    1.8776 H      2438        0    0.0000
  14632 H        1499.7985  215.5309    3.2050 H      2438        0    0.0000
  14633 H        1497.3943  214.9936    2.2862 H      2438        0    0.0000
  14634 H        1497.8824  215.8648    0.8366 H      2438        0    0.0000
  14635 C        1498.9727  213.9987    1.1509 C.3    2439        0    0.0000
  14636 C        1497.9728  212.8892    0.8075 C.3    2439        0    0.0000
  14637 H        1499.5619  214.2618    0.2637 H      2439        0    0.0000
  14638 H        1499.6836  213.6435    1.9074 H      2439        0    0.0000
  14639 H        1496.9799  213.1434    1.1987 H      2439        0    0.0000
  14640 H        1497.8691  212.7998   -0.2810 H      2439        0    0.0000
  14641 C        1498.4044  211.4992    1.3898 C.3    2440        0    0.0000
  14642 C        1498.4037  210.3974    0.3242 C.3    2440        0    0.0000
  14643 H        1499.4044  211.5956    1.8305 H      2440        0    0.0000
  14644 H        1497.7241  211.2318    2.2078 H      2440        0    0.0000
  14645 H        1497.4863  210.4541   -0.2747 H      2440        0    0.0000
  14646 H        1499.2418  210.5435   -0.3684 H      2440        0    0.0000
  14647 C        1498.5103  208.9645    0.9511 C.3    2441        0    0.0000
  14648 C        1497.1346  208.3465    1.2246 C.3    2441        0    0.0000
  14649 H        1499.0825  208.3224    0.2704 H      2441        0    0.0000
  14650 H        1499.0859  209.0282    1.8829 H      2441        0    0.0000
  14651 H        1496.3716  209.1332    1.2732 H      2441        0    0.0000
  14652 H        1496.8500  207.6821    0.3993 H      2441        0    0.0000
  14653 C        1497.1051  207.5308    2.5630 C.3    2442        0    0.0000
  14654 C        1495.8157  207.7649    3.3575 C.3    2442        0    0.0000
  14655 H        1497.2150  206.4644    2.3296 H      2442        0    0.0000
  14656 H        1497.9761  207.8122    3.1679 H      2442        0    0.0000
  14657 H        1495.2433  208.5878    2.9117 H      2442        0    0.0000
  14658 H        1495.1770  206.8742    3.3089 H      2442        0    0.0000
  14659 C        1496.0978  208.1027    4.8621 C.3    2443        0    0.0000
  14660 C        1495.3331  207.1802    5.8178 C.3    2443        0    0.0000
  14661 H        1497.1765  208.0239    5.0459 H      2443        0    0.0000
  14662 H        1495.8221  209.1482    5.0476 H      2443        0    0.0000
  14663 H        1494.2616  207.2005    5.5833 H      2443        0    0.0000
  14664 H        1495.6652  206.1429    5.6854 H      2443        0    0.0000
  14665 C        1495.5295  207.5858    7.3193 C.3    2444        0    0.0000
  14666 C        1494.3323  208.3676    7.8712 C.3    2444        0    0.0000
  14667 H        1495.6914  206.6774    7.9127 H      2444        0    0.0000
  14668 H        1496.4435  208.1863    7.4067 H      2444        0    0.0000
  14669 H        1494.0479  209.1634    7.1716 H      2444        0    0.0000
  14670 H        1493.4623  207.7060    7.9661 H      2444        0    0.0000
  14671 C        1494.6346  209.0084    9.2695 C.3    2445        0    0.0000
  14672 C        1493.8585  210.3112    9.4915 C.3    2445        0    0.0000
  14673 H        1494.3832  208.2826   10.0529 H      2445        0    0.0000
  14674 H        1495.7129  209.1950    9.3473 H      2445        0    0.0000
  14675 H        1493.7416  210.8460    8.5409 H      2445        0    0.0000
  14676 H        1492.8474  210.0894    9.8547 H      2445        0    0.0000
  14677 C        1494.5684  211.2578   10.5199 C.3    2446        0    0.0000
  14678 C        1493.6174  211.7344   11.6232 C.3    2446        0    0.0000
  14679 H        1495.4198  210.7253   10.9614 H      2446        0    0.0000
  14680 H        1494.9810  212.1196    9.9809 H      2446        0    0.0000
  14681 H        1492.5760  211.6273   11.2946 H      2446        0    0.0000
  14682 H        1493.7319  211.1066   12.5157 H      2446        0    0.0000
  14683 C        1493.8704  213.2293   12.0212 C.3    2447        0    0.0000
  14684 C        1495.0632  213.3838   12.9711 C.3    2447        0    0.0000
  14685 H        1494.0380  213.8147   11.1086 H      2447        0    0.0000
  14686 H        1492.9623  213.6290   12.4895 H      2447        0    0.0000
  14687 H        1495.5564  214.3490   12.8016 H      2447        0    0.0000
  14688 H        1494.7173  213.3852   14.0122 H      2447        0    0.0000
  14689 C        1496.1185  212.2386   12.7909 C.3    2448        0    0.0000
  14690 C        1497.5178  212.6600   13.2529 C.3    2448        0    0.0000
  14691 H        1495.7853  211.3587   13.3551 H      2448        0    0.0000
  14692 H        1496.1439  211.9442   11.7343 H      2448        0    0.0000
  14693 H        1497.8008  213.6080   12.7787 H      2448        0    0.0000
  14694 H        1497.5190  212.8367   14.3356 H      2448        0    0.0000
  14695 C        1498.6047  211.5820   12.9154 C.3    2449        0    0.0000
  14696 C        1499.9069  212.2096   12.4059 C.3    2449        0    0.0000
  14697 H        1498.8016  210.9849   13.8143 H      2449        0    0.0000
  14698 H        1498.1991  210.8943   12.1630 H      2449        0    0.0000
  14699 H        1499.7450  212.6641   11.4204 H      2449        0    0.0000
  14700 H        1500.2227  213.0177   13.0772 H      2449        0    0.0000
  14701 C        1501.0677  211.1620   12.2948 C.3    2450        0    0.0000
  14702 C        1501.7953  211.2419   10.9481 C.3    2450        0    0.0000
  14703 H        1501.7760  211.3306   13.1154 H      2450        0    0.0000
  14704 H        1500.6521  210.1571   12.4387 H      2450        0    0.0000
  14705 H        1501.6171  212.2188   10.4816 H      2450        0    0.0000
  14706 H        1502.8784  211.1584   11.1002 H      2450        0    0.0000
  14707 C        1501.3359  210.1174    9.9571 C.3    2451        0    0.0000
  14708 C        1502.4829  209.6209    9.0699 C.3    2451        0    0.0000
  14709 H        1500.9204  209.2836   10.5364 H      2451        0    0.0000
  14710 H        1500.5201  210.5061    9.3349 H      2451        0    0.0000
  14711 H        1503.4480  209.8787    9.5234 H      2451        0    0.0000
  14712 H        1502.4529  208.5269    8.9935 H      2451        0    0.0000
  14713 C        1502.4241  210.2301    7.6266 C.3    2452        0    0.0000
  14714 C        1503.2933  211.4850    7.4899 C.3    2452        0    0.0000
  14715 H        1502.7485  209.4677    6.9076 H      2452        0    0.0000
  14716 H        1501.3806  210.4671    7.3850 H      2452        0    0.0000
  14717 H        1502.9421  212.2627    8.1794 H      2452        0    0.0000
  14718 H        1504.3287  211.2580    7.7722 H      2452        0    0.0000
  14719 C        1503.2815  212.0600    6.0315 C.3    2453        0    0.0000
  14720 C        1503.6553  213.5458    5.9899 C.3    2453        0    0.0000
  14721 H        1503.9802  211.4789    5.4167 H      2453        0    0.0000
  14722 H        1502.2837  211.9109    5.6007 H      2453        0    0.0000
  14723 H        1503.2063  214.0220    5.1095 H      2453        0    0.0000
  14724 H        1503.2480  214.0609    6.8687 H      2453        0    0.0000
  14725 C        1505.2067  213.7672    5.9481 C.3    2454        0    0.0000
  14726 C        1505.5844  215.2500    6.0358 C.3    2454        0    0.0000
  14727 H        1505.6653  213.2125    6.7761 H      2454        0    0.0000
  14728 H        1505.6010  213.3326    5.0210 H      2454        0    0.0000
  14729 H        1504.9468  215.8407    5.3665 H      2454        0    0.0000
  14730 H        1505.4066  215.6239    7.0517 H      2454        0    0.0000
  14731 C        1507.0846  215.5042    5.6591 C.3    2455        0    0.0000
  14732 C        1507.8679  216.1581    6.8027 C.3    2455        0    0.0000
  14733 H        1507.5474  214.5480    5.3849 H      2455        0    0.0000
  14734 H        1507.1221  216.1400    4.7659 H      2455        0    0.0000
  14735 H        1507.6021  217.2195    6.8822 H      2455        0    0.0000
  14736 H        1507.5966  215.6930    7.7586 H      2455        0    0.0000
  14737 C        1509.4186  216.0391    6.6050 C.3    2456        0    0.0000
  14738 C        1510.1797  216.0966    7.9341 C.3    2456        0    0.0000
  14739 H        1509.6376  215.0975    6.0865 H      2456        0    0.0000
  14740 H        1509.7538  216.8481    5.9442 H      2456        0    0.0000
  14741 H        1509.6855  216.7955    8.6205 H      2456        0    0.0000
  14742 H        1510.1630  215.1132    8.4200 H      2456        0    0.0000
  14743 C        1511.6708  216.5421    7.7460 C.3    2457        0    0.0000
  14744 C        1512.6493  215.3713    7.8901 C.3    2457        0    0.0000
  14745 H        1511.7798  217.0039    6.7569 H      2457        0    0.0000
  14746 H        1511.9033  217.3197    8.4841 H      2457        0    0.0000
  14747 H        1512.7612  215.1025    8.9478 H      2457        0    0.0000
  14748 H        1512.2528  214.4847    7.3799 H      2457        0    0.0000
  14749 C        1514.0637  215.7032    7.3007 C.3    2458        0    0.0000
  14750 C        1515.1085  215.9401    8.3968 C.3    2458        0    0.0000
  14751 H        1514.3794  214.8765    6.6524 H      2458        0    0.0000
  14752 H        1513.9810  216.5910    6.6616 H      2458        0    0.0000
  14753 H        1514.8074  216.7859    9.0271 H      2458        0    0.0000
  14754 H        1515.1699  215.0637    9.0536 H      2458        0    0.0000
  14755 C        1516.5320  216.2309    7.8076 C.3    2459        0    0.0000
  14756 C        1516.8928  217.7192    7.8682 C.3    2459        0    0.0000
  14757 H        1517.2719  215.6415    8.3634 H      2459        0    0.0000
  14758 H        1516.5637  215.8780    6.7693 H      2459        0    0.0000
  14759 H        1515.9823  218.3232    7.9668 H      2459        0    0.0000
  14760 H        1517.5033  217.9224    8.7568 H      2459        0    0.0000
  14761 C        1517.6780  218.1924    6.5965 C.3    2460        0    0.0000
  14762 C        1516.8511  219.1432    5.7239 C.3    2460        0    0.0000
  14763 H        1518.6045  218.6851    6.9160 H      2460        0    0.0000
  14764 H        1517.9744  217.3104    6.0153 H      2460        0    0.0000
  14765 H        1516.4573  219.9662    6.3330 H      2460        0    0.0000
  14766 H        1517.4877  219.5972    4.9544 H      2460        0    0.0000
  14767 C        1515.6526  218.4151    5.0229 C.3    2461        0    0.0000
  14768 C        1515.7909  218.4066    3.4965 C.3    2461        0    0.0000
  14769 H        1515.5936  217.3869    5.4011 H      2461        0    0.0000
  14770 H        1514.7185  218.9116    5.3133 H      2461        0    0.0000
  14771 H        1515.0013  217.7893    3.0507 H      2461        0    0.0000
  14772 H        1515.6586  219.4214    3.1011 H      2461        0    0.0000
  14773 C        1517.1841  217.8598    3.0294 C.3    2462        0    0.0000
  14774 C        1517.1025  216.4129    2.5305 C.3    2462        0    0.0000
  14775 H        1517.5709  218.5103    2.2352 H      2462        0    0.0000
  14776 H        1517.8901  217.9300    3.8661 H      2462        0    0.0000
  14777 H        1516.4691  215.8189    3.2010 H      2462        0    0.0000
  14778 H        1516.6296  216.3821    1.5412 H      2462        0    0.0000
  14779 C        1518.5137  215.7363    2.4372 C.3    2463        0    0.0000
  14780 C        1518.7749  214.7750    3.6019 C.3    2463        0    0.0000
  14781 H        1518.5861  215.1997    1.4831 H      2463        0    0.0000
  14782 H        1519.2810  216.5201    2.4170 H      2463        0    0.0000
  14783 H        1517.8329  214.5346    4.1099 H      2463        0    0.0000
  14784 H        1519.1801  213.8280    3.2245 H      2463        0    0.0000
  14785 C        1519.7766  215.3706    4.6505 C.3    2464        0    0.0000
  14786 C        1520.7267  214.3084    5.2147 C.3    2464        0    0.0000
  14787 H        1520.3513  216.1742    4.1738 H      2464        0    0.0000
  14788 H        1519.2036  215.8330    5.4640 H      2464        0    0.0000
  14789 H        1520.3472  213.9359    6.1743 H      2464        0    0.0000
  14790 H        1520.7717  213.4464    4.5377 H      2464        0    0.0000
  14791 C        1522.1782  214.8616    5.4259 C.3    2465        0    0.0000
  14792 C        1522.2642  215.8300    6.6108 C.3    2465        0    0.0000
  14793 H        1522.8597  214.0162    5.5810 H      2465        0    0.0000
  14794 H        1522.5027  215.3634    4.5059 H      2465        0    0.0000
  14795 H        1521.3217  216.3820    6.7146 H      2465        0    0.0000
  14796 H        1522.4060  215.2709    7.5440 H      2465        0    0.0000
  14797 C        1523.4371  216.8580    6.4542 C.3    2466        0    0.0000
  14798 C        1523.0371  218.2682    6.9019 C.3    2466        0    0.0000
  14799 H        1524.2957  216.5067    7.0399 H      2466        0    0.0000
  14800 H        1523.7565  216.8728    5.4048 H      2466        0    0.0000
  14801 H        1521.9960  218.4706    6.6219 H      2466        0    0.0000
  14802 H        1523.0901  218.3451    7.9949 H      2466        0    0.0000
  14803 C        1523.9536  219.3735    6.2726 C.3    2467        0    0.0000
  14804 C        1523.3417  220.7736    6.3939 C.3    2467        0    0.0000
  14805 H        1524.9319  219.3462    6.7684 H      2467        0    0.0000
  14806 H        1524.1284  219.1294    5.2174 H      2467        0    0.0000
  14807 H        1524.1288  221.5127    6.5865 H      2467        0    0.0000
  14808 H        1522.8655  221.0591    5.4478 H      2467        0    0.0000
  14809 C        1522.2767  220.8589    7.5412 C.3    2468        0    0.0000
  14810 C        1522.7437  221.7436    8.7025 C.3    2468        0    0.0000
  14811 H        1521.3391  221.2480    7.1253 H      2468        0    0.0000
  14812 H        1522.0642  219.8450    7.9026 H      2468        0    0.0000
  14813 H        1523.1110  222.7037    8.3197 H      2468        0    0.0000
  14814 H        1521.8995  221.9707    9.3653 H      2468        0    0.0000
  14815 C        1523.8799  221.0677    9.5448 C.3    2469        0    0.0000
  14816 C        1523.4205  220.7170   10.9642 C.3    2469        0    0.0000
  14817 H        1524.2153  220.1624    9.0236 H      2469        0    0.0000
  14818 H        1524.7413  221.7457    9.5848 H      2469        0    0.0000
  14819 H        1523.0823  221.6218   11.4844 H      2469        0    0.0000
  14820 H        1522.5608  220.0367   10.9241 H      2469        0    0.0000
  14821 C        1524.5580  220.0445   11.8077 C.3    2470        0    0.0000
  14822 C        1524.2882  218.5580   12.0658 C.3    2470        0    0.0000
  14823 H        1525.5107  220.1675   11.2781 H      2470        0    0.0000
  14824 H        1524.6555  220.5801   12.7602 H      2470        0    0.0000
  14825 H        1524.6372  218.2808   13.0682 H      2470        0    0.0000
  14826 H        1523.2090  218.3620   12.0425 H      2470        0    0.0000
  14827 C        1524.9923  217.6348   11.0125 C.3    2471        0    0.0000
  14828 C        1525.7111  216.4498   11.6669 C.3    2471        0    0.0000
  14829 H        1524.2401  217.2721   10.3011 H      2471        0    0.0000
  14830 H        1525.7064  218.2363   10.4365 H      2471        0    0.0000
  14831 H        1526.0066  216.7083   12.6913 H      2471        0    0.0000
  14832 H        1525.0310  215.5923   11.7421 H      2471        0    0.0000
  14833 C        1526.9874  216.0141   10.8677 C.3    2472        0    0.0000
  14834 C        1526.6372  215.3408    9.5362 C.3    2472        0    0.0000
  14835 H        1527.6119  216.8983   10.6893 H      2472        0    0.0000
  14836 H        1527.5785  215.3313   11.4904 H      2472        0    0.0000
  14837 H        1526.7844  214.2563    9.6129 H      2472        0    0.0000
  14838 H        1525.5770  215.4988    9.3021 H      2472        0    0.0000
  14839 C        1527.5035  215.8857    8.3488 C.3    2473        0    0.0000
  14840 C        1527.0099  217.2470    7.8465 C.3    2473        0    0.0000
  14841 H        1528.5471  215.9622    8.6784 H      2473        0    0.0000
  14842 H        1527.4839  215.1537    7.5318 H      2473        0    0.0000
  14843 H        1526.0776  217.1240    7.2815 H      2473        0    0.0000
  14844 H        1526.7792  217.9006    8.6969 H      2473        0    0.0000
  14845 C        1528.0643  217.9608    6.9321 C.3    2474        0    0.0000
  14846 C        1528.6798  219.1917    7.6068 C.3    2474        0    0.0000
  14847 H        1528.8510  217.2418    6.6716 H      2474        0    0.0000
  14848 H        1527.5786  218.2506    5.9920 H      2474        0    0.0000
  14849 H        1527.9886  220.0410    7.5422 H      2474        0    0.0000
  14850 H        1528.8387  218.9952    8.6743 H      2474        0    0.0000
  14851 C        1530.0472  219.6025    6.9595 C.3    2475        0    0.0000
  14852 C        1530.0852  221.0855    6.5743 C.3    2475        0    0.0000
  14853 H        1530.8551  219.3767    7.6665 H      2475        0    0.0000
  14854 H        1530.2203  218.9792    6.0736 H      2475        0    0.0000
  14855 H        1529.9604  221.7095    7.4678 H      2475        0    0.0000
  14856 H        1531.0637  221.3383    6.1475 H      2475        0    0.0000
  14857 C        1528.9701  221.4587    5.5377 C.3    2476        0    0.0000
  14858 C        1529.5536  221.9638    4.2134 C.3    2476        0    0.0000
  14859 H        1528.3428  220.5764    5.3600 H      2476        0    0.0000
  14860 H        1528.3197  222.2242    5.9783 H      2476        0    0.0000
  14861 H        1528.7540  222.0858    3.4722 H      2476        0    0.0000
  14862 H        1530.0057  222.9533    4.3547 H      2476        0    0.0000
  14863 C        1530.6372  220.9914    3.6323 C.3    2477        0    0.0000
  14864 C        1530.1182  220.1947    2.4303 C.3    2477        0    0.0000
  14865 H        1531.5190  221.5765    3.3433 H      2477        0    0.0000
  14866 H        1530.9601  220.3066    4.4263 H      2477        0    0.0000
  14867 H        1529.1436  219.7495    2.6666 H      2477        0    0.0000
  14868 H        1529.9597  220.8640    1.5755 H      2477        0    0.0000
  14869 C        1531.1045  219.0538    2.0028 C.3    2478        0    0.0000
  14870 C        1530.6570  217.6788    2.5106 C.3    2478        0    0.0000
  14871 H        1531.1809  219.0441    0.9084 H      2478        0    0.0000
  14872 H        1532.1050  219.2892    2.3864 H      2478        0    0.0000
  14873 H        1529.7758  217.7845    3.1554 H      2478        0    0.0000
  14874 H        1530.3557  217.0458    1.6667 H      2478        0    0.0000
  14875 C        1531.7860  216.9459    3.3143 C.3    2479        0    0.0000
  14876 C        1531.2455  216.2386    4.5619 C.3    2479        0    0.0000
  14877 H        1532.2764  216.2205    2.6534 H      2479        0    0.0000
  14878 H        1532.5504  217.6795    3.5992 H      2479        0    0.0000
  14879 H        1530.5132  216.8786    5.0695 H      2479        0    0.0000
  14880 H        1530.7167  215.3213    4.2748 H      2479        0    0.0000
  14881 C        1532.3829  215.8699    5.5756 C.3    2480        0    0.0000
  14882 C        1532.1273  216.4492    6.9714 C.3    2480        0    0.0000
  14883 H        1532.4666  214.7775    5.6312 H      2480        0    0.0000
  14884 H        1533.3387  216.2396    5.1843 H      2480        0    0.0000
  14885 H        1531.0674  216.7091    7.0824 H      2480        0    0.0000
  14886 H        1532.3488  215.6956    7.7377 H      2480        0    0.0000
  14887 C        1532.9928  217.7256    7.2527 C.3    2481        0    0.0000
  14888 C        1533.8693  217.5695    8.5003 C.3    2481        0    0.0000
  14889 H        1533.6199  217.9279    6.3755 H      2481        0    0.0000
  14890 H        1532.3243  218.5877    7.3679 H      2481        0    0.0000
  14891 H        1533.3610  217.9980    9.3731 H      2481        0    0.0000
  14892 H        1534.0275  216.5062    8.7184 H      2481        0    0.0000
  14893 C        1535.2648  218.2648    8.3366 C.3    2482        0    0.0000
  14894 C        1535.2001  219.7704    8.6165 C.3    2482        0    0.0000
  14895 H        1535.9803  217.7863    9.0166 H      2482        0    0.0000
  14896 H        1535.6311  218.0871    7.3178 H      2482        0    0.0000
  14897 H        1534.3140  220.2044    8.1368 H      2482        0    0.0000
  14898 H        1535.0941  219.9484    9.6939 H      2482        0    0.0000
  14899 C        1536.4741  220.5256    8.1024 C.3    2483        0    0.0000
  14900 C        1536.1797  221.3904    6.8718 C.3    2483        0    0.0000
  14901 H        1536.8674  221.1491    8.9149 H      2483        0    0.0000
  14902 H        1537.2511  219.7880    7.8667 H      2483        0    0.0000
  14903 H        1535.3999  222.1255    7.1065 H      2483        0    0.0000
  14904 H        1537.0741  221.9593    6.5891 H      2483        0    0.0000
  14905 C        1535.7150  220.5359    5.6426 C.3    2484        0    0.0000
  14906 C        1536.7671  220.5005    4.5287 C.3    2484        0    0.0000
  14907 H        1535.4939  219.5169    5.9835 H      2484        0    0.0000
  14908 H        1534.7748  220.9508    5.2587 H      2484        0    0.0000
  14909 H        1536.5074  219.7318    3.7903 H      2484        0    0.0000
  14910 H        1536.7814  221.4586    3.9941 H      2484        0    0.0000
  14911 C        1538.2054  220.2074    5.0787 C.3    2485        0    0.0000
  14912 C        1538.7861  218.9034    4.5208 C.3    2485        0    0.0000
  14913 H        1538.8600  221.0501    4.8240 H      2485        0    0.0000
  14914 H        1538.1625  220.1617    6.1741 H      2485        0    0.0000
  14915 H        1538.0013  218.1396    4.4557 H      2485        0    0.0000
  14916 H        1539.1561  219.0627    3.5004 H      2485        0    0.0000
  14917 C        1539.9581  218.3498    5.4025 C.3    2486        0    0.0000
  14918 C        1541.2795  219.0799    5.1374 C.3    2486        0    0.0000
  14919 H        1539.6810  218.4455    6.4597 H      2486        0    0.0000
  14920 H        1540.0745  217.2773    5.2032 H      2486        0    0.0000
  14921 H        1541.9663  218.4261    4.5856 H      2486        0    0.0000
  14922 H        1541.1034  219.9581    4.5040 H      2486        0    0.0000
  14923 C        1541.9780  219.5440    6.4618 C.3    2487        0    0.0000
  14924 C        1542.7576  220.8511    6.2802 C.3    2487        0    0.0000
  14925 H        1541.2145  219.6664    7.2400 H      2487        0    0.0000
  14926 H        1542.6517  218.7486    6.8037 H      2487        0    0.0000
  14927 H        1543.5593  220.7117    5.5446 H      2487        0    0.0000
  14928 H        1542.0967  221.6309    5.8819 H      2487        0    0.0000
  14929 C        1543.3865  221.3592    7.6231 C.3    2488        0    0.0000
  14930 C        1543.5981  222.8772    7.6276 C.3    2488        0    0.0000
  14931 H        1542.7305  221.0686    8.4530 H      2488        0    0.0000
  14932 H        1544.3425  220.8456    7.7824 H      2488        0    0.0000
  14933 H        1544.4515  223.1361    8.2667 H      2488        0    0.0000
  14934 H        1543.8442  223.2258    6.6170 H      2488        0    0.0000
  14935 C        1542.3334  223.6519    8.1351 C.3    2489        0    0.0000
  14936 C        1542.0812  224.9370    7.3389 C.3    2489        0    0.0000
  14937 H        1541.4617  222.9895    8.0662 H      2489        0    0.0000
  14938 H        1542.4664  223.8881    9.1982 H      2489        0    0.0000
  14939 H        1541.4423  225.6175    7.9153 H      2489        0    0.0000
  14940 H        1543.0276  225.4642    7.1659 H      2489        0    0.0000
  14941 C        1541.4000  224.6548    5.9554 C.3    2490        0    0.0000
  14942 C        1542.0756  225.4158    4.8093 C.3    2490        0    0.0000
  14943 H        1541.4305  223.5757    5.7599 H      2490        0    0.0000
  14944 H        1540.3409  224.9335    6.0193 H      2490        0    0.0000
  14945 H        1541.3317  226.0053    4.2593 H      2490        0    0.0000
  14946 H        1542.8076  226.1278    5.2105 H      2490        0    0.0000
  14947 C        1542.8024  224.4558    3.8056 C.3    2491        0    0.0000
  14948 C        1544.2880  224.7974    3.6473 C.3    2491        0    0.0000
  14949 H        1542.6893  223.4234    4.1591 H      2491        0    0.0000
  14950 H        1542.2975  224.5129    2.8332 H      2491        0    0.0000
  14951 H        1544.4049  225.6789    3.0048 H      2491        0    0.0000
  14952 H        1544.7200  225.0582    4.6215 H      2491        0    0.0000
  14953 C        1545.1082  223.6115    3.0320 C.3    2492        0    0.0000
  14954 C        1546.1802  223.0862    3.9933 C.3    2492        0    0.0000
  14955 H        1544.4154  222.8043    2.7635 H      2492        0    0.0000
  14956 H        1545.5739  223.9505    2.0983 H      2492        0    0.0000
  14957 H        1545.7069  222.6263    4.8695 H      2492        0    0.0000
  14958 H        1546.7704  222.3005    3.5053 H      2492        0    0.0000
  14959 C        1547.1494  224.2187    4.4785 C.3    2493        0    0.0000
  14960 C        1548.3345  223.6660    5.2781 C.3    2493        0    0.0000
  14961 H        1547.5117  224.7728    3.6038 H      2493        0    0.0000
  14962 H        1546.5824  224.9313    5.0903 H      2493        0    0.0000
  14963 H        1547.9818  223.2334    6.2227 H      2493        0    0.0000
  14964 H        1548.8182  222.8542    4.7210 H      2493        0    0.0000
  14965 C        1549.4032  224.7682    5.5950 C.3    2494        0    0.0000
  14966 C        1550.3071  224.3801    6.7703 C.3    2494        0    0.0000
  14967 H        1550.0084  224.9424    4.6967 H      2494        0    0.0000
  14968 H        1548.8855  225.7103    5.8138 H      2494        0    0.0000
  14969 H        1551.3130  224.7926    6.6233 H      2494        0    0.0000
  14970 H        1549.9214  224.8144    7.7010 H      2494        0    0.0000
  14971 C        1550.4188  222.8264    6.9461 C.3    2495        0    0.0000
  14972 C        1550.8622  222.4321    8.3592 C.3    2495        0    0.0000
  14973 H        1549.4460  222.3738    6.7170 H      2495        0    0.0000
  14974 H        1551.1294  222.4370    6.2065 H      2495        0    0.0000
  14975 H        1551.9401  222.6001    8.4759 H      2495        0    0.0000
  14976 H        1550.3623  223.0669    9.1012 H      2495        0    0.0000
  14977 C        1550.5465  220.9312    8.6838 C.3    2496        0    0.0000
  14978 C        1549.4594  220.7847    9.7543 C.3    2496        0    0.0000
  14979 H        1550.2351  220.4276    7.7601 H      2496        0    0.0000
  14980 H        1551.4694  220.4393    9.0151 H      2496        0    0.0000
  14981 H        1549.9188  220.6316   10.7385 H      2496        0    0.0000
  14982 H        1548.8706  221.7080    9.8214 H      2496        0    0.0000
  14983 C        1548.4906  219.5885    9.4573 C.3    2497        0    0.0000
  14984 C        1547.2020  219.6656   10.2837 C.3    2497        0    0.0000
  14985 H        1548.2512  219.5846    8.3868 H      2497        0    0.0000
  14986 H        1549.0156  218.6481    9.6662 H      2497        0    0.0000
  14987 H        1547.4438  219.7659   11.3490 H      2497        0    0.0000
  14988 H        1546.6296  220.5590   10.0052 H      2497        0    0.0000
  14989 C        1546.2944  218.4025   10.0882 C.3    2498        0    0.0000
  14990 C        1544.9845  218.5005   10.8778 C.3    2498        0    0.0000
  14991 H        1546.0809  218.2825    9.0187 H      2498        0    0.0000
  14992 H        1546.8553  217.5124   10.3992 H      2498        0    0.0000
  14993 H        1544.1293  218.4881   10.1908 H      2498        0    0.0000
  14994 H        1544.8745  217.6279   11.5337 H      2498        0    0.0000
  14995 C        1544.9128  219.8008   11.7505 C.3    2499        0    0.0000
  14996 C        1543.4717  220.2736   11.9712 C.3    2499        0    0.0000
  14997 H        1545.3966  219.6061   12.7157 H      2499        0    0.0000
  14998 H        1545.4963  220.5892   11.2590 H      2499        0    0.0000
  14999 H        1542.9257  220.2728   11.0197 H      2499        0    0.0000
  15000 H        1542.9454  219.5783   12.6369 H      2499        0    0.0000
  15001 C        1543.4066  221.7125   12.5898 C.3    2500        0    0.0000
  15002 C        1543.6970  222.8039   11.5537 C.3    2500        0    0.0000
  15003 H        1542.4124  221.8645   13.0277 H      2500        0    0.0000
  15004 H        1544.1272  221.7756   13.4148 H      2500        0    0.0000
  15005 H        1543.5234  222.4175   10.5417 H      2500        0    0.0000
  15006 H        1543.0082  223.6463   11.6918 H      2500        0    0.0000
  15007 C        1545.1692  223.3345   11.6464 C.3    2501        0    0.0000
  15008 C        1545.2653  224.8356   11.3515 C.3    2501        0    0.0000
  15009 H        1545.5590  223.1226   12.6496 H      2501        0    0.0000
  15010 H        1545.7930  222.7718   10.9408 H      2501        0    0.0000
  15011 H        1545.0413  225.0263   10.2947 H      2501        0    0.0000
  15012 H        1544.5154  225.3825   11.9362 H      2501        0    0.0000
  15013 C        1546.6840  225.4160   11.6801 C.3    2502        0    0.0000
  15014 C        1547.5138  225.6716   10.4172 C.3    2502        0    0.0000
  15015 H        1546.5623  226.3483   12.2454 H      2502        0    0.0000
  15016 H        1547.2091  224.7139   12.3396 H      2502        0    0.0000
  15017 H        1547.1351  225.0607    9.5883 H      2502        0    0.0000
  15018 H        1547.4143  226.7193   10.1074 H      2502        0    0.0000
  15019 C        1549.0333  225.3494   10.6294 C.3    2503        0    0.0000
  15020 C        1549.8928  226.6169   10.6911 C.3    2503        0    0.0000
  15021 H        1549.1464  224.7728   11.5559 H      2503        0    0.0000
  15022 H        1549.3751  224.7026    9.8120 H      2503        0    0.0000
  15023 H        1549.2670  227.4841   10.9359 H      2503        0    0.0000
  15024 H        1550.6361  226.5286   11.4934 H      2503        0    0.0000
  15025 C        1550.6376  226.8961    9.3404 C.3    2504        0    0.0000
  15026 C        1552.0756  227.3795    9.5590 C.3    2504        0    0.0000
  15027 H        1550.6366  225.9781    8.7399 H      2504        0    0.0000
  15028 H        1550.0713  227.6447    8.7724 H      2504        0    0.0000
  15029 H        1552.1417  228.4588    9.3734 H      2504        0    0.0000
  15030 H        1552.3710  227.2209   10.6036 H      2504        0    0.0000
  15031 C        1553.0983  226.6428    8.6270 C.3    2505        0    0.0000
  15032 C        1554.5491  226.8570    9.0726 C.3    2505        0    0.0000
  15033 H        1552.8613  225.5716    8.6192 H      2505        0    0.0000
  15034 H        1552.9633  227.0028    7.5995 H      2505        0    0.0000
  15035 H        1554.7513  227.9287    9.1920 H      2505        0    0.0000
  15036 H        1554.7135  226.3941   10.0534 H      2505        0    0.0000
  15037 C        1555.5784  226.2589    8.0526 C.3    2506        0    0.0000
  15038 C        1556.3149  225.0396    8.6181 C.3    2506        0    0.0000
  15039 H        1555.0461  225.9840    7.1335 H      2506        0    0.0000
  15040 H        1556.2986  227.0395    7.7783 H      2506        0    0.0000
  15041 H        1557.0206  225.3542    9.3968 H      2506        0    0.0000
  15042 H        1555.6011  224.3576    9.0968 H      2506        0    0.0000
  15043 C        1557.1002  224.2540    7.5119 C.3    2507        0    0.0000
  15044 C        1556.6797  222.7822    7.4355 C.3    2507        0    0.0000
  15045 H        1556.9331  224.7437    6.5446 H      2507        0    0.0000
  15046 H        1558.1746  224.3279    7.7211 H      2507        0    0.0000
  15047 H        1557.3455  222.1681    8.0545 H      2507        0    0.0000
  15048 H        1555.6682  222.6582    7.8421 H      2507        0    0.0000
  15049 C        1556.7050  222.2325    5.9676 C.3    2508        0    0.0000
  15050 C        1555.3735  221.5887    5.5654 C.3    2508        0    0.0000
  15051 H        1556.9453  223.0573    5.2854 H      2508        0    0.0000
  15052 H        1557.5184  221.5020    5.8776 H      2508        0    0.0000
  15053 H        1555.4264  220.5010    5.6980 H      2508        0    0.0000
  15054 H        1554.5695  221.9472    6.2200 H      2508        0    0.0000
  15055 C        1554.9895  221.8983    4.0774 C.3    2509        0    0.0000
  15056 C        1553.7515  222.7956    3.9716 C.3    2509        0    0.0000
  15057 H        1555.8442  222.3770    3.5839 H      2509        0    0.0000
  15058 H        1554.8132  220.9507    3.5532 H      2509        0    0.0000
  15059 H        1553.4215  222.8599    2.9273 H      2509        0    0.0000
  15060 H        1552.9202  222.3580    4.5381 H      2509        0    0.0000
  15061 C        1554.0204  224.2443    4.5068 C.3    2510        0    0.0000
  15062 C        1554.1143  225.2735    3.3749 C.3    2510        0    0.0000
  15063 H        1553.2161  224.5201    5.2001 H      2510        0    0.0000
  15064 H        1554.9503  224.2394    5.0888 H      2510        0    0.0000
  15065 H        1554.3358  224.7697    2.4259 H      2510        0    0.0000
  15066 H        1553.1494  225.7792    3.2453 H      2510        0    0.0000
  15067 C        1555.2186  226.3531    3.6437 C.3    2511        0    0.0000
  15068 C        1556.4930  226.0950    2.8322 C.3    2511        0    0.0000
  15069 H        1554.8121  227.3428    3.4009 H      2511        0    0.0000
  15070 H        1555.4508  226.3622    4.7158 H      2511        0    0.0000
  15071 H        1556.4530  225.0981    2.3761 H      2511        0    0.0000
  15072 H        1556.5669  226.8157    2.0084 H      2511        0    0.0000
  15073 C        1557.7875  226.1973    3.7106 C.3    2512        0    0.0000
  15074 C        1558.8008  225.0951    3.3824 C.3    2512        0    0.0000
  15075 H        1558.2419  227.1838    3.5569 H      2512        0    0.0000
  15076 H        1557.5022  226.1431    4.7685 H      2512        0    0.0000
  15077 H        1558.2772  224.1878    3.0565 H      2512        0    0.0000
  15078 H        1559.4391  225.4077    2.5469 H      2512        0    0.0000
  15079 C        1559.7109  224.7406    4.6084 C.3    2513        0    0.0000
  15080 C        1560.7123  223.6262    4.2856 C.3    2513        0    0.0000
  15081 H        1560.2443  225.6451    4.9261 H      2513        0    0.0000
  15082 H        1559.0720  224.4404    5.4483 H      2513        0    0.0000
  15083 H        1560.1792  222.7236    3.9619 H      2513        0    0.0000
  15084 H        1561.3555  223.9289    3.4500 H      2513        0    0.0000
  15085 C        1561.6165  223.2655    5.5144 C.3    2514        0    0.0000
  15086 C        1562.8793  224.1316    5.5805 C.3    2514        0    0.0000
  15087 H        1561.0291  223.3861    6.4331 H      2514        0    0.0000
  15088 H        1561.8905  222.2050    5.4526 H      2514        0    0.0000
  15089 H        1563.7144  223.6171    5.0893 H      2514        0    0.0000
  15090 H        1562.7212  225.0695    5.0332 H      2514        0    0.0000
  15091 C        1563.2911  224.4701    7.0546 C.3    2515        0    0.0000
  15092 C        1563.7792  225.9152    7.2042 C.3    2515        0    0.0000
  15093 H        1562.4303  224.2939    7.7116 H      2515        0    0.0000
  15094 H        1564.0770  223.7730    7.3712 H      2515        0    0.0000
  15095 H        1564.3110  226.2283    6.2973 H      2515        0    0.0000
  15096 H        1562.9230  226.5917    7.3166 H      2515        0    0.0000
  15097 C        1564.7313  226.0963    8.4363 C.3    2516        0    0.0000
  15098 C        1564.0480  226.8303    9.5955 C.3    2516        0    0.0000
  15099 H        1565.0737  225.1079    8.7668 H      2516        0    0.0000
  15100 H        1565.6237  226.6480    8.1156 H      2516        0    0.0000
  15101 H        1564.7693  227.0146   10.4012 H      2516        0    0.0000
  15102 H        1563.6914  227.8121    9.2608 H      2516        0    0.0000
  15103 C        1562.8359  226.0239   10.1771 C.3    2517        0    0.0000
  15104 C        1561.8591  226.9187   10.9477 C.3    2517        0    0.0000
  15105 H        1562.3157  225.5228    9.3513 H      2517        0    0.0000
  15106 H        1563.2198  225.2332   10.8336 H      2517        0    0.0000
  15107 H        1561.2013  226.3048   11.5751 H      2517        0    0.0000
  15108 H        1562.4111  227.5824   11.6247 H      2517        0    0.0000
  15109 C        1560.9749  227.7931    9.9932 C.3    2518        0    0.0000
  15110 C        1560.3749  229.0087   10.7084 C.3    2518        0    0.0000
  15111 H        1561.5880  228.1208    9.1445 H      2518        0    0.0000
  15112 H        1560.1744  227.1668    9.5801 H      2518        0    0.0000
  15113 H        1559.3853  229.2382   10.2942 H      2518        0    0.0000
  15114 H        1560.2268  228.7841   11.7719 H      2518        0    0.0000
  15115 C        1561.2828  230.2802   10.5821 C.3    2519        0    0.0000
  15116 C        1561.7726  230.7820   11.9451 C.3    2519        0    0.0000
  15117 H        1562.1392  230.0408    9.9396 H      2519        0    0.0000
  15118 H        1560.7170  231.0695   10.0719 H      2519        0    0.0000
  15119 H        1561.1593  231.6289   12.2766 H      2519        0    0.0000
  15120 H        1561.6561  229.9942   12.6998 H      2519        0    0.0000
  15121 C        1563.2747  231.2291   11.9089 C.3    2520        0    0.0000
  15122 C        1564.2041  230.1958   12.5554 C.3    2520        0    0.0000
  15123 H        1563.5681  231.3982   10.8655 H      2520        0    0.0000
  15124 H        1563.3690  232.1935   12.4231 H      2520        0    0.0000
  15125 H        1563.8563  229.9591   13.5686 H      2520        0    0.0000
  15126 H        1564.1777  229.2583   11.9863 H      2520        0    0.0000
  15127 C        1565.6870  230.6978   12.6343 C.3    2521        0    0.0000
  15128 C        1566.6589  229.7526   11.9193 C.3    2521        0    0.0000
  15129 H        1565.7448  231.7006   12.1933 H      2521        0    0.0000
  15130 H        1565.9700  230.8007   13.6893 H      2521        0    0.0000
  15131 H        1567.5671  229.6215   12.5207 H      2521        0    0.0000
  15132 H        1566.2065  228.7591   11.8114 H      2521        0    0.0000
  15133 C        1567.0646  230.2800   10.5000 C.3    2522        0    0.0000
  15134 C        1567.5852  229.1609    9.5914 C.3    2522        0    0.0000
  15135 H        1566.1936  230.7633   10.0401 H      2522        0    0.0000
  15136 H        1567.8306  231.0566   10.6170 H      2522        0    0.0000
  15137 H        1566.7454  228.5769    9.1950 H      2522        0    0.0000
  15138 H        1568.1064  229.5903    8.7267 H      2522        0    0.0000
  15139 C        1568.5640  228.1931   10.3419 C.3    2523        0    0.0000
  15140 C        1569.4315  227.3797    9.3749 C.3    2523        0    0.0000
  15141 H        1569.2004  228.7840   11.0122 H      2523        0    0.0000
  15142 H        1567.9764  227.5195   10.9779 H      2523        0    0.0000
  15143 H        1570.3612  227.9204    9.1580 H      2523        0    0.0000
  15144 H        1569.7211  226.4286    9.8386 H      2523        0    0.0000
  15145 C        1568.6945  227.0798    8.0243 C.3    2524        0    0.0000
  15146 C        1569.4987  226.1389    7.1202 C.3    2524        0    0.0000
  15147 H        1567.7139  226.6411    8.2465 H      2524        0    0.0000
  15148 H        1568.5052  228.0284    7.5065 H      2524        0    0.0000
  15149 H        1570.2998  225.6585    7.6953 H      2524        0    0.0000
  15150 H        1568.8534  225.3347    6.7459 H      2524        0    0.0000
  15151 C        1570.1333  226.8879    5.8981 C.3    2525        0    0.0000
  15152 C        1571.5388  226.3735    5.5676 C.3    2525        0    0.0000
  15153 H        1569.4749  226.7679    5.0289 H      2525        0    0.0000
  15154 H        1570.1685  227.9616    6.1208 H      2525        0    0.0000
  15155 H        1572.0936  227.1324    5.0021 H      2525        0    0.0000
  15156 H        1572.1014  226.1958    6.4925 H      2525        0    0.0000
  15157 C        1571.5049  225.0466    4.7338 C.3    2526        0    0.0000
  15158 C        1571.9882  223.8387    5.5441 C.3    2526        0    0.0000
  15159 H        1570.4802  224.8770    4.3806 H      2526        0    0.0000
  15160 H        1572.1289  225.1743    3.8404 H      2526        0    0.0000
  15161 H        1572.1758  222.9887    4.8766 H      2526        0    0.0000
  15162 H        1572.9419  224.0715    6.0335 H      2526        0    0.0000
  15163 C        1570.9520  223.4039    6.6373 C.3    2527        0    0.0000
  15164 C        1571.0728  221.9179    6.9934 C.3    2527        0    0.0000
  15165 H        1571.1039  224.0188    7.5331 H      2527        0    0.0000
  15166 H        1569.9407  223.6225    6.2728 H      2527        0    0.0000
  15167 H        1570.3386  221.3340    6.4245 H      2527        0    0.0000
  15168 H        1572.0632  221.5421    6.7087 H      2527        0    0.0000
  15169 C        1570.8524  221.6538    8.5229 C.3    2528        0    0.0000
  15170 C        1569.3767  221.7581    8.9237 C.3    2528        0    0.0000
  15171 H        1571.2395  220.6572    8.7689 H      2528        0    0.0000
  15172 H        1571.4496  222.3740    9.0957 H      2528        0    0.0000
  15173 H        1568.8232  222.3363    8.1735 H      2528        0    0.0000
  15174 H        1568.9227  220.7597    8.9501 H      2528        0    0.0000
  15175 C        1569.1881  222.4362   10.3244 C.3    2529        0    0.0000
  15176 C        1567.8912  223.2488   10.4064 C.3    2529        0    0.0000
  15177 H        1569.1938  221.6580   11.0977 H      2529        0    0.0000
  15178 H        1570.0510  223.0840   10.5228 H      2529        0    0.0000
  15179 H        1567.6857  223.7279    9.4411 H      2529        0    0.0000
  15180 H        1567.0436  222.5844   10.6150 H      2529        0    0.0000
  15181 C        1567.9518  224.3542   11.5163 C.3    2530        0    0.0000
  15182 C        1566.8112  224.2213   12.5315 C.3    2530        0    0.0000
  15183 H        1568.9200  224.2891   12.0278 H      2530        0    0.0000
  15184 H        1567.9150  225.3399   11.0360 H      2530        0    0.0000
  15185 H        1565.8586  224.5037   12.0662 H      2530        0    0.0000
  15186 H        1566.7095  223.1758   12.8481 H      2530        0    0.0000
  15187 C        1567.0381  225.1137   13.8001 C.3    2531        0    0.0000
  15188 C        1565.7196  225.5307   14.4605 C.3    2531        0    0.0000
  15189 H        1567.6584  224.5598   14.5157 H      2531        0    0.0000
  15190 H        1567.6110  226.0030   13.5090 H      2531        0    0.0000
  15191 H        1565.8804  225.7330   15.5267 H      2531        0    0.0000
  15192 H        1565.3542  226.4641   14.0145 H      2531        0    0.0000
  15193 C        1564.6095  224.4333   14.3162 C.3    2532        0    0.0000
  15194 C        1563.2657  224.8864   14.8970 C.3    2532        0    0.0000
  15195 H        1564.4952  224.1835   13.2541 H      2532        0    0.0000
  15196 H        1564.9481  223.5195   14.8201 H      2532        0    0.0000
  15197 H        1562.5187  224.9683   14.0978 H      2532        0    0.0000
  15198 H        1562.8894  224.1365   15.6041 H      2532        0    0.0000
  15199 C        1563.3716  226.2665   15.6331 C.3    2533        0    0.0000
  15200 C        1562.0079  226.9486   15.7872 C.3    2533        0    0.0000
  15201 H        1563.8263  226.1076   16.6188 H      2533        0    0.0000
  15202 H        1564.0553  226.9151   15.0716 H      2533        0    0.0000
  15203 H        1561.4215  226.8295   14.8677 H      2533        0    0.0000
  15204 H        1561.4354  226.4681   16.5904 H      2533        0    0.0000
  15205 C        1562.1411  228.4776   16.1069 C.3    2534        0    0.0000
  15206 C        1560.7965  229.1126   16.4780 C.3    2534        0    0.0000
  15207 H        1562.8571  228.6061   16.9282 H      2534        0    0.0000
  15208 H        1562.5688  228.9855   15.2337 H      2534        0    0.0000
  15209 H        1560.1829  229.2464   15.5785 H      2534        0    0.0000
  15210 H        1560.2368  228.4454   17.1450 H      2534        0    0.0000
  15211 C        1560.9700  230.5022   17.1825 C.3    2535        0    0.0000
  15212 C        1561.0930  231.6520   16.1765 C.3    2535        0    0.0000
  15213 H        1560.1123  230.6723   17.8450 H      2535        0    0.0000
  15214 H        1561.8601  230.4655   17.8226 H      2535        0    0.0000
  15215 H        1560.4515  231.4613   15.3070 H      2535        0    0.0000
  15216 H        1560.7406  232.5871   16.6291 H      2535        0    0.0000
  15217 C        1562.5670  231.8537   15.6822 C.3    2536        0    0.0000
  15218 C        1563.0826  233.2708   15.9558 C.3    2536        0    0.0000
  15219 H        1563.2104  231.1171   16.1789 H      2536        0    0.0000
  15220 H        1562.6122  231.6379   14.6076 H      2536        0    0.0000
  15221 H        1562.5604  233.9915   15.3142 H      2536        0    0.0000
  15222 H        1562.8650  233.5567   16.9924 H      2536        0    0.0000
  15223 C        1564.6252  233.3999   15.7091 C.3    2537        0    0.0000
  15224 C        1564.9532  234.3917   14.5875 C.3    2537        0    0.0000
  15225 H        1565.1075  233.7149   16.6428 H      2537        0    0.0000
  15226 H        1565.0284  232.4093   15.4650 H      2537        0    0.0000
  15227 H        1564.0750  234.5385   13.9467 H      2537        0    0.0000
  15228 H        1565.2002  235.3723   15.0129 H      2537        0    0.0000
  15229 C        1566.1520  233.9096   13.6997 C.3    2538        0    0.0000
  15230 C        1567.5087  234.3171   14.2848 C.3    2538        0    0.0000
  15231 H        1566.0991  232.8187   13.5965 H      2538        0    0.0000
  15232 H        1566.0360  234.3276   12.6921 H      2538        0    0.0000
  15233 H        1567.6368  235.4044   14.2158 H      2538        0    0.0000
  15234 H        1567.5504  234.0620   15.3510 H      2538        0    0.0000
  15235 C        1568.7058  233.6194   13.5511 C.3    2539        0    0.0000
  15236 C        1569.5255  232.7303   14.4926 C.3    2539        0    0.0000
  15237 H        1568.3113  233.0231   12.7190 H      2539        0    0.0000
  15238 H        1569.3475  234.3914   13.1089 H      2539        0    0.0000
  15239 H        1570.1785  233.3489   15.1206 H      2539        0    0.0000
  15240 H        1568.8578  232.1863   15.1724 H      2539        0    0.0000
  15241 C        1570.4072  231.6942   13.7138 C.3    2540        0    0.0000
  15242 C        1570.6593  230.4192   14.5260 C.3    2540        0    0.0000
  15243 H        1569.9089  231.4457   12.7685 H      2540        0    0.0000
  15244 H        1571.3613  232.1681   13.4518 H      2540        0    0.0000
  15245 H        1571.2361  230.6561   15.4287 H      2540        0    0.0000
  15246 H        1569.7061  229.9938   14.8638 H      2540        0    0.0000
  15247 C        1571.4336  229.3333   13.7023 C.3    2541        0    0.0000
  15248 C        1571.1304  227.9111   14.1866 C.3    2541        0    0.0000
  15249 H        1571.1654  229.4351   12.6432 H      2541        0    0.0000
  15250 H        1572.5095  229.5344   13.7756 H      2541        0    0.0000
  15251 H        1571.1830  227.8675   15.2816 H      2541        0    0.0000
  15252 H        1570.1071  227.6292   13.9089 H      2541        0    0.0000
  15253 C        1572.1246  226.8558   13.5905 C.3    2542        0    0.0000
  15254 C        1572.4435  227.1263   12.1159 C.3    2542        0    0.0000
  15255 H        1573.0479  226.8657   14.1829 H      2542        0    0.0000
  15256 H        1571.6884  225.8556   13.7036 H      2542        0    0.0000
  15257 H        1571.5500  226.9603   11.5013 H      2542        0    0.0000
  15258 H        1572.7290  228.1767   11.9793 H      2542        0    0.0000
  15259 C        1573.6012  226.2143   11.5814 C.3    2543        0    0.0000
  15260 C        1573.3647  225.7631   10.1358 C.3    2543        0    0.0000
  15261 H        1574.5471  226.7651   11.6536 H      2543        0    0.0000
  15262 H        1573.6946  225.3403   12.2378 H      2543        0    0.0000
  15263 H        1573.8295  224.7837    9.9666 H      2543        0    0.0000
  15264 H        1572.2905  225.6381    9.9517 H      2543        0    0.0000
  15265 C        1573.9407  226.7827    9.0936 C.3    2544        0    0.0000
  15266 C        1575.1765  226.2374    8.3692 C.3    2544        0    0.0000
  15267 H        1573.1559  227.0269    8.3669 H      2544        0    0.0000
  15268 H        1574.1906  227.7162    9.6130 H      2544        0    0.0000
  15269 H        1575.8806  225.8117    9.0949 H      2544        0    0.0000
  15270 H        1574.8877  225.4219    7.6946 H      2544        0    0.0000
  15271 C        1575.9143  227.3432    7.5382 C.3    2545        0    0.0000
  15272 C        1577.3857  226.9963    7.2871 C.3    2545        0    0.0000
  15273 H        1575.3909  227.4760    6.5831 H      2545        0    0.0000
  15274 H        1575.8389  228.2976    8.0740 H      2545        0    0.0000
  15275 H        1577.8562  226.6562    8.2181 H      2545        0    0.0000
  15276 H        1577.4602  226.1652    6.5748 H      2545        0    0.0000
  15277 C        1578.1967  228.2156    6.7275 C.3    2546        0    0.0000
  15278 C        1578.9796  227.8593    5.4590 C.3    2546        0    0.0000
  15279 H        1577.5009  229.0384    6.5214 H      2546        0    0.0000
  15280 H        1578.8832  228.5709    7.5059 H      2546        0    0.0000
  15281 H        1579.4946  228.7477    5.0728 H      2546        0    0.0000
  15282 H        1579.7570  227.1208    5.6916 H      2546        0    0.0000
  15283 C        1578.0548  227.2818    4.3326 C.3    2547        0    0.0000
  15284 C        1578.8386  226.4652    3.2992 C.3    2547        0    0.0000
  15285 H        1577.2805  226.6580    4.7960 H      2547        0    0.0000
  15286 H        1577.5361  228.1136    3.8398 H      2547        0    0.0000
  15287 H        1578.5692  226.7845    2.2847 H      2547        0    0.0000
  15288 H        1579.9143  226.6489    3.4120 H      2547        0    0.0000
  15289 C        1578.5721  224.9261    3.4320 C.3    2548        0    0.0000
  15290 C        1579.1907  224.3371    4.7047 C.3    2548        0    0.0000
  15291 H        1577.4889  224.7530    3.4253 H      2548        0    0.0000
  15292 H        1578.9775  224.4194    2.5475 H      2548        0    0.0000
  15293 H        1579.8381  223.4889    4.4504 H      2548        0    0.0000
  15294 H        1579.8279  225.0843    5.1938 H      2548        0    0.0000
  15295 C        1578.1031  223.8545    5.7253 C.3    2549        0    0.0000
  15296 C        1578.6967  222.9826    6.8375 C.3    2549        0    0.0000
  15297 H        1577.6102  224.7334    6.1589 H      2549        0    0.0000
  15298 H        1577.3309  223.2964    5.1816 H      2549        0    0.0000
  15299 H        1578.0388  222.9932    7.7153 H      2549        0    0.0000
  15300 H        1578.7604  221.9395    6.5040 H      2549        0    0.0000
  15301 C        1580.1249  223.4628    7.2704 C.3    2550        0    0.0000
  15302 C        1580.1144  224.1593    8.6356 C.3    2550        0    0.0000
  15303 H        1580.7968  222.5959    7.2955 H      2550        0    0.0000
  15304 H        1580.5165  224.1430    6.5041 H      2550        0    0.0000
  15305 H        1579.1459  224.6472    8.8016 H      2550        0    0.0000
  15306 H        1580.2357  223.4193    9.4364 H      2550        0    0.0000
  15307 C        1581.2495  225.2330    8.7637 C.3    2551        0    0.0000
  15308 C        1581.1429  226.0387   10.0631 C.3    2551        0    0.0000
  15309 H        1582.2217  224.7273    8.7133 H      2551        0    0.0000
  15310 H        1581.1991  225.9058    7.8986 H      2551        0    0.0000
  15311 H        1580.1310  226.4488   10.1695 H      2551        0    0.0000
  15312 H        1581.3099  225.3834   10.9268 H      2551        0    0.0000
  15313 C        1582.1742  227.2182   10.1170 C.3    2552        0    0.0000
  15314 C        1581.6873  228.4512    9.3478 C.3    2552        0    0.0000
  15315 H        1582.3591  227.4785   11.1665 H      2552        0    0.0000
  15316 H        1583.1300  226.8713    9.7053 H      2552        0    0.0000
  15317 H        1580.9122  228.1629    8.6268 H      2552        0    0.0000
  15318 H        1581.2242  229.1669   10.0385 H      2552        0    0.0000
  15319 C        1582.8499  229.1698    8.5798 C.3    2553        0    0.0000
  15320 C        1582.9041  228.7692    7.1014 C.3    2553        0    0.0000
  15321 H        1582.7161  230.2548    8.6709 H      2553        0    0.0000
  15322 H        1583.8005  228.9272    9.0704 H      2553        0    0.0000
  15323 H        1581.8881  228.6268    6.7128 H      2553        0    0.0000
  15324 H        1583.3574  229.5746    6.5099 H      2553        0    0.0000
  15325 C        1583.7222  227.4519    6.8723 C.3    2554        0    0.0000
  15326 C        1584.7783  227.6077    5.7727 C.3    2554        0    0.0000
  15327 H        1584.2017  227.1648    7.8164 H      2554        0    0.0000
  15328 H        1583.0265  226.6440    6.6139 H      2554        0    0.0000
  15329 H        1585.3539  226.6793    5.6697 H      2554        0    0.0000
  15330 H        1584.2913  227.7852    4.8058 H      2554        0    0.0000
  15331 C        1585.7693  228.7870    6.0634 C.3    2555        0    0.0000
  15332 C        1587.2284  228.3209    6.1121 C.3    2555        0    0.0000
  15333 H        1585.6448  229.5528    5.2878 H      2555        0    0.0000
  15334 H        1585.4919  229.2553    7.0160 H      2555        0    0.0000
  15335 H        1587.4038  227.7275    7.0180 H      2555        0    0.0000
  15336 H        1587.4424  227.6647    5.2593 H      2555        0    0.0000
  15337 C        1588.2366  229.5213    6.0914 C.3    2556        0    0.0000
  15338 C        1589.5887  229.1550    6.7133 C.3    2556        0    0.0000
  15339 H        1588.3761  229.8481    5.0535 H      2556        0    0.0000
  15340 H        1587.7911  230.3665    6.6306 H      2556        0    0.0000
  15341 H        1589.4401  228.4828    7.5675 H      2556        0    0.0000
  15342 H        1590.2019  228.6090    5.9856 H      2556        0    0.0000
  15343 C        1590.3822  230.4179    7.1962 C.3    2557        0    0.0000
  15344 C        1591.7740  230.0606    7.7291 C.3    2557        0    0.0000
  15345 H        1590.4690  231.1221    6.3595 H      2557        0    0.0000
  15346 H        1589.7997  230.9249    7.9755 H      2557        0    0.0000
  15347 H        1592.1010  229.0997    7.3129 H      2557        0    0.0000
  15348 H        1592.5056  230.8104    7.4032 H      2557        0    0.0000
  15349 C        1591.8058  229.9704    9.2938 C.3    2558        0    0.0000
  15350 C        1592.3378  228.6203    9.7872 C.3    2558        0    0.0000
  15351 H        1592.4293  230.7852    9.6824 H      2558        0    0.0000
  15352 H        1590.7921  230.1387    9.6784 H      2558        0    0.0000
  15353 H        1593.3608  228.4636    9.4236 H      2558        0    0.0000
  15354 H        1592.3882  228.6136   10.8830 H      2558        0    0.0000
  15355 C        1591.4446  227.4216    9.3151 C.3    2559        0    0.0000
  15356 C        1592.2538  226.1339    9.1252 C.3    2559        0    0.0000
  15357 H        1590.6494  227.2607   10.0536 H      2559        0    0.0000
  15358 H        1590.9506  227.6974    8.3753 H      2559        0    0.0000
  15359 H        1593.2772  226.2750    9.4937 H      2559        0    0.0000
  15360 H        1591.8143  225.3224    9.7186 H      2559        0    0.0000
  15361 C        1592.3145  225.6862    7.6241 C.3    2560        0    0.0000
  15362 C        1593.5961  226.1580    6.9285 C.3    2560        0    0.0000
  15363 H        1592.2424  224.5924    7.5781 H      2560        0    0.0000
  15364 H        1591.4352  226.0821    7.1012 H      2560        0    0.0000
  15365 H        1594.3301  226.4864    7.6748 H      2560        0    0.0000
  15366 H        1594.0549  225.3257    6.3804 H      2560        0    0.0000
  15367 C        1593.3303  227.3359    5.9289 C.3    2561        0    0.0000
  15368 C        1594.1056  227.1705    4.6171 C.3    2561        0    0.0000
  15369 H        1592.2538  227.3907    5.7251 H      2561        0    0.0000
  15370 H        1593.6079  228.2802    6.4133 H      2561        0    0.0000
  15371 H        1595.0088  226.5713    4.7870 H      2561        0    0.0000
  15372 H        1593.4972  226.6228    3.8868 H      2561        0    0.0000
  15373 C        1594.5228  228.5479    3.9956 C.3    2562        0    0.0000
  15374 C        1595.9365  228.9686    4.4122 C.3    2562        0    0.0000
  15375 H        1594.4584  228.4768    2.9028 H      2562        0    0.0000
  15376 H        1593.7971  229.3099    4.3053 H      2562        0    0.0000
  15377 H        1596.5912  228.0897    4.4625 H      2562        0    0.0000
  15378 H        1596.3669  229.6391    3.6583 H      2562        0    0.0000
  15379 C        1595.9554  229.6929    5.8024 C.3    2563        0    0.0000
  15380 C        1597.3800  229.9934    6.2816 C.3    2563        0    0.0000
  15381 H        1595.3806  230.6240    5.7238 H      2563        0    0.0000
  15382 H        1595.4368  229.0635    6.5361 H      2563        0    0.0000
  15383 H        1597.8744  229.0660    6.5961 H      2563        0    0.0000
  15384 H        1597.9753  230.4039    5.4567 H      2563        0    0.0000
  15385 C        1597.4033  231.0087    7.4758 C.3    2564        0    0.0000
  15386 C        1598.5204  230.7001    8.4788 C.3    2564        0    0.0000
  15387 H        1597.5267  232.0226    7.0755 H      2564        0    0.0000
  15388 H        1596.4288  230.9850    7.9791 H      2564        0    0.0000
  15389 H        1599.4504  230.4668    7.9459 H      2564        0    0.0000
  15390 H        1598.7249  231.5827    9.0976 H      2564        0    0.0000
  15391 C        1598.1605  229.4972    9.4174 C.3    2565        0    0.0000
  15392 C        1599.3679  229.0099   10.2260 C.3    2565        0    0.0000
  15393 H        1597.3544  229.8059   10.0945 H      2565        0    0.0000
  15394 H        1597.7622  228.6783    8.8058 H      2565        0    0.0000
  15395 H        1600.1252  229.8014   10.2848 H      2565        0    0.0000
  15396 H        1599.0651  228.7864   11.2565 H      2565        0    0.0000
  15397 C        1600.0228  227.7292    9.6028 C.3    2566        0    0.0000
  15398 C        1601.3160  228.0485    8.8445 C.3    2566        0    0.0000
  15399 H        1600.2253  227.0093   10.4056 H      2566        0    0.0000
  15400 H        1599.2991  227.2543    8.9289 H      2566        0    0.0000
  15401 H        1601.8773  228.8304    9.3708 H      2566        0    0.0000
  15402 H        1601.9626  227.1628    8.8140 H      2566        0    0.0000
  15403 C        1601.0417  228.5245    7.3763 C.3    2567        0    0.0000
  15404 C        1602.3188  228.9905    6.6686 C.3    2567        0    0.0000
  15405 H        1600.5813  227.7003    6.8176 H      2567        0    0.0000
  15406 H        1600.3064  229.3384    7.4001 H      2567        0    0.0000
  15407 H        1603.1025  228.2290    6.7664 H      2567        0    0.0000
  15408 H        1602.1306  229.1128    5.5947 H      2567        0    0.0000
  15409 C        1602.8567  230.3456    7.2447 C.3    2568        0    0.0000
  15410 C        1604.3284  230.5845    6.8897 C.3    2568        0    0.0000
  15411 H        1602.2384  231.1648    6.8571 H      2568        0    0.0000
  15412 H        1602.7283  230.3425    8.3342 H      2568        0    0.0000
  15413 H        1604.9279  229.7067    7.1607 H      2568        0    0.0000
  15414 H        1604.4371  230.7179    5.8063 H      2568        0    0.0000
  15415 C        1604.9180  231.8427    7.6155 C.3    2569        0    0.0000
  15416 C        1606.3970  232.0661    7.2815 C.3    2569        0    0.0000
  15417 H        1604.3306  232.7238    7.3291 H      2569        0    0.0000
  15418 H        1604.7916  231.7180    8.6981 H      2569        0    0.0000
  15419 H        1606.5090  232.3184    6.2196 H      2569        0    0.0000
  15420 H        1606.7865  232.9194    7.8506 H      2569        0    0.0000
  15421 C        1607.2743  230.8058    7.5966 C.3    2570        0    0.0000
  15422 C        1608.7731  231.0885    7.4447 C.3    2570        0    0.0000
  15423 H        1607.0566  230.4698    8.6180 H      2570        0    0.0000
  15424 H        1606.9755  229.9903    6.9263 H      2570        0    0.0000
  15425 H        1609.3165  230.1519    7.2689 H      2570        0    0.0000
  15426 H        1608.9489  231.7241    6.5680 H      2570        0    0.0000
  15427 C        1609.3759  231.7930    8.7087 C.3    2571        0    0.0000
  15428 C        1610.7561  232.3997    8.4328 C.3    2571        0    0.0000
  15429 H        1608.6818  232.5739    9.0431 H      2571        0    0.0000
  15430 H        1609.4427  231.0610    9.5232 H      2571        0    0.0000
  15431 H        1610.6660  233.4809    8.2697 H      2571        0    0.0000
  15432 H        1611.4069  232.2660    9.3058 H      2571        0    0.0000
  15433 C        1611.4490  231.7560    7.1826 C.3    2572        0    0.0000
  15434 C        1612.7545  232.4677    6.8116 C.3    2572        0    0.0000
  15435 H        1611.6442  230.6970    7.3927 H      2572        0    0.0000
  15436 H        1610.7507  231.7858    6.3370 H      2572        0    0.0000
  15437 H        1612.6028  233.5542    6.8073 H      2572        0    0.0000
  15438 H        1613.5237  232.2601    7.5658 H      2572        0    0.0000
  15439 C        1613.2926  232.0272    5.4065 C.3    2573        0    0.0000
  15440 C        1613.7998  233.2144    4.5804 C.3    2573        0    0.0000
  15441 H        1614.0985  231.2968    5.5495 H      2573        0    0.0000
  15442 H        1612.4901  231.5091    4.8670 H      2573        0    0.0000
  15443 H        1614.6488  233.6898    5.0870 H      2573        0    0.0000
  15444 H        1614.1686  232.8656    3.6079 H      2573        0    0.0000
  15445 C        1612.6860  234.2913    4.3418 C.3    2574        0    0.0000
  15446 C        1613.2671  235.6418    3.9086 C.3    2574        0    0.0000
  15447 H        1611.9915  233.9186    3.5789 H      2574        0    0.0000
  15448 H        1612.1057  234.4104    5.2651 H      2574        0    0.0000
  15449 H        1614.0363  235.4915    3.1409 H      2574        0    0.0000
  15450 H        1612.4835  236.2596    3.4525 H      2574        0    0.0000
  15451 C        1613.8977  236.4296    5.1082 C.3    2575        0    0.0000
  15452 C        1612.8850  237.3544    5.7923 C.3    2575        0    0.0000
  15453 H        1614.2987  235.7097    5.8324 H      2575        0    0.0000
  15454 H        1614.7502  237.0130    4.7389 H      2575        0    0.0000
  15455 H        1613.3999  238.2204    6.2264 H      2575        0    0.0000
  15456 H        1612.1755  237.7476    5.0536 H      2575        0    0.0000
  15457 C        1612.0829  236.6238    6.9239 C.3    2576        0    0.0000
  15458 C        1610.9791  237.5070    7.5163 C.3    2576        0    0.0000
  15459 H        1611.6487  235.7044    6.5123 H      2576        0    0.0000
  15460 H        1612.7823  236.3170    7.7114 H      2576        0    0.0000
  15461 H        1611.2247  238.5659    7.3685 H      2576        0    0.0000
  15462 H        1610.0320  237.3273    6.9928 H      2576        0    0.0000
  15463 C        1610.7675  237.2464    9.0476 C.3    2577        0    0.0000
  15464 C        1609.3359  236.8033    9.3690 C.3    2577        0    0.0000
  15465 H        1611.4812  236.4816    9.3780 H      2577        0    0.0000
  15466 H        1611.0104  238.1632    9.5992 H      2577        0    0.0000
  15467 H        1608.6323  237.6155    9.1484 H      2577        0    0.0000
  15468 H        1609.0516  235.9578    8.7304 H      2577        0    0.0000
  15469 C        1609.1671  236.3821   10.8696 C.3    2578        0    0.0000
  15470 C        1609.3705  234.8772   11.0768 C.3    2578        0    0.0000
  15471 H        1609.8850  236.9460   11.4781 H      2578        0    0.0000
  15472 H        1608.1664  236.6767   11.2091 H      2578        0    0.0000
  15473 H        1608.8312  234.5445   11.9725 H      2578        0    0.0000
  15474 H        1608.9491  234.3206   10.2305 H      2578        0    0.0000
  15475 C        1610.8839  234.4974   11.2281 C.3    2579        0    0.0000
  15476 C        1611.1724  233.7756   12.5490 C.3    2579        0    0.0000
  15477 H        1611.1757  233.8636   10.3816 H      2579        0    0.0000
  15478 H        1611.4865  235.4116   11.1597 H      2579        0    0.0000
  15479 H        1612.1252  234.1230   12.9673 H      2579        0    0.0000
  15480 H        1610.3975  234.0176   13.2871 H      2579        0    0.0000
  15481 C        1611.2350  232.2190   12.3740 C.3    2580        0    0.0000
  15482 C        1612.6750  231.7024   12.2806 C.3    2580        0    0.0000
  15483 H        1610.7202  231.7470   13.2201 H      2580        0    0.0000
  15484 H        1610.6765  231.9419   11.4714 H      2580        0    0.0000
  15485 H        1613.3143  232.4552   11.8030 H      2580        0    0.0000
  15486 H        1613.0809  231.5364   13.2861 H      2580        0    0.0000
  15487 C        1612.7750  230.3655   11.4681 C.3    2581        0    0.0000
  15488 C        1614.1522  230.1805   10.8215 C.3    2581        0    0.0000
  15489 H        1612.5593  229.5260   12.1407 H      2581        0    0.0000
  15490 H        1611.9940  230.3606   10.6976 H      2581        0    0.0000
  15491 H        1614.4062  231.0612   10.2188 H      2581        0    0.0000
  15492 H        1614.9237  230.0962   11.5969 H      2581        0    0.0000
  15493 C        1614.2134  228.9082    9.9077 C.3    2582        0    0.0000
  15494 C        1614.3375  229.2652    8.4224 C.3    2582        0    0.0000
  15495 H        1615.0651  228.2902   10.2185 H      2582        0    0.0000
  15496 H        1613.3107  228.3081   10.0762 H      2582        0    0.0000
  15497 H        1614.3501  230.3550    8.2973 H      2582        0    0.0000
  15498 H        1615.2888  228.8914    8.0239 H      2582        0    0.0000
  15499 C        1613.1641  228.6721    7.5687 C.3    2583        0    0.0000
  15500 C        1613.6687  227.9049    6.3416 C.3    2583        0    0.0000
  15501 H        1612.5632  228.0106    8.2048 H      2583        0    0.0000
  15502 H        1612.5054  229.4916    7.2553 H      2583        0    0.0000
  15503 H        1614.7046  227.5805    6.5005 H      2583        0    0.0000
  15504 H        1613.0728  226.9954    6.1951 H      2583        0    0.0000
  15505 C        1613.6044  228.7672    5.0340 C.3    2584        0    0.0000
  15506 C        1612.7471  228.1101    3.9465 C.3    2584        0    0.0000
  15507 H        1613.2026  229.7573    5.2827 H      2584        0    0.0000
  15508 H        1614.6250  228.9252    4.6640 H      2584        0    0.0000
  15509 H        1613.2384  228.2069    2.9705 H      2584        0    0.0000
  15510 H        1612.6475  227.0356    4.1442 H      2584        0    0.0000
  15511 C        1611.3152  228.7419    3.8563 C.3    2585        0    0.0000
  15512 C        1611.0970  229.5013    2.5428 C.3    2585        0    0.0000
  15513 H        1610.5696  227.9437    3.9575 H      2585        0    0.0000
  15514 H        1611.1721  229.4168    4.7092 H      2585        0    0.0000
  15515 H        1612.0637  229.7621    2.0943 H      2585        0    0.0000
  15516 H        1610.5770  228.8607    1.8200 H      2585        0    0.0000
  15517 C        1610.2639  230.8134    2.7464 C.3    2586        0    0.0000
  15518 C        1609.2672  231.0513    1.6067 C.3    2586        0    0.0000
  15519 H        1609.7322  230.7496    3.7039 H      2586        0    0.0000
  15520 H        1610.9546  231.6620    2.8255 H      2586        0    0.0000
  15521 H        1609.6891  230.6973    0.6579 H      2586        0    0.0000
  15522 H        1608.3521  230.4717    1.7802 H      2586        0    0.0000
  15523 C        1608.8862  232.5645    1.4569 C.3    2587        0    0.0000
  15524 C        1608.5156  233.2058    2.7987 C.3    2587        0    0.0000
  15525 H        1609.7312  233.0988    1.0052 H      2587        0    0.0000
  15526 H        1608.0477  232.6502    0.7547 H      2587        0    0.0000
  15527 H        1607.4259  233.2113    2.9247 H      2587        0    0.0000
  15528 H        1608.9254  232.6122    3.6253 H      2587        0    0.0000
  15529 C        1609.0458  234.6760    2.9211 C.3    2588        0    0.0000
  15530 C        1608.1947  235.5230    3.8737 C.3    2588        0    0.0000
  15531 H        1610.0858  234.6490    3.2692 H      2588        0    0.0000
  15532 H        1609.0593  235.1313    1.9231 H      2588        0    0.0000
  15533 H        1607.2708  235.8379    3.3733 H      2588        0    0.0000
  15534 H        1607.8943  234.9244    4.7425 H      2588        0    0.0000
  15535 C        1608.9563  236.7974    4.3770 C.3    2589        0    0.0000
  15536 C        1608.3180  238.0944    3.8680 C.3    2589        0    0.0000
  15537 H        1608.9709  236.7904    5.4739 H      2589        0    0.0000
  15538 H        1610.0012  236.7379    4.0478 H      2589        0    0.0000
  15539 H        1608.7255  238.3527    2.8827 H      2589        0    0.0000
  15540 H        1607.2379  237.9554    3.7357 H      2589        0    0.0000
  15541 C        1608.5566  239.2972    4.8446 C.3    2590        0    0.0000
  15542 C        1607.3057  239.6399    5.6609 C.3    2590        0    0.0000
  15543 H        1609.3876  239.0480    5.5162 H      2590        0    0.0000
  15544 H        1608.8750  240.1695    4.2601 H      2590        0    0.0000
  15545 H        1607.4939  240.5220    6.2854 H      2590        0    0.0000
  15546 H        1606.4780  239.9006    4.9892 H      2590        0    0.0000
  15547 C        1606.8544  238.4548    6.5825 C.3    2591        0    0.0000
  15548 C        1605.3292  238.3534    6.6934 C.3    2591        0    0.0000
  15549 H        1607.2655  237.5196    6.1828 H      2591        0    0.0000
  15550 H        1607.2955  238.5930    7.5775 H      2591        0    0.0000
  15551 H        1604.9196  239.2824    7.1091 H      2591        0    0.0000
  15552 H        1604.8868  238.2325    5.6967 H      2591        0    0.0000
  15553 C        1604.8774  237.1537    7.5956 C.3    2592        0    0.0000
  15554 C        1604.4760  237.6052    9.0042 C.3    2592        0    0.0000
  15555 H        1604.0363  236.6434    7.1102 H      2592        0    0.0000
  15556 H        1605.6967  236.4263    7.6529 H      2592        0    0.0000
  15557 H        1604.5946  238.6917    9.0989 H      2592        0    0.0000
  15558 H        1603.4154  237.3874    9.1810 H      2592        0    0.0000
  15559 C        1605.3281  236.9049   10.1181 C.3    2593        0    0.0000
  15560 C        1604.5889  235.7255   10.7596 C.3    2593        0    0.0000
  15561 H        1606.2726  236.5619    9.6775 H      2593        0    0.0000
  15562 H        1605.5884  237.6468   10.8831 H      2593        0    0.0000
  15563 H        1603.8351  236.0939   11.4665 H      2593        0    0.0000
  15564 H        1604.0494  235.1570    9.9919 H      2593        0    0.0000
  15565 C        1605.5605  234.7562   11.5168 C.3    2594        0    0.0000
  15566 C        1605.0166  233.3250   11.5855 C.3    2594        0    0.0000
  15567 H        1606.5338  234.7646   11.0105 H      2594        0    0.0000
  15568 H        1605.7289  235.1436   12.5293 H      2594        0    0.0000
  15569 H        1604.5852  233.1338   12.5761 H      2594        0    0.0000
  15570 H        1604.2052  233.1955   10.8586 H      2594        0    0.0000
  15571 C        1606.1251  232.2536   11.3020 C.3    2595        0    0.0000
  15572 C        1606.1897  231.1812   12.3951 C.3    2595        0    0.0000
  15573 H        1605.9258  231.7875   10.3291 H      2595        0    0.0000
  15574 H        1607.0938  232.7614   11.2156 H      2595        0    0.0000
  15575 H        1606.2654  231.6542   13.3821 H      2595        0    0.0000
  15576 H        1605.2646  230.5914   12.3985 H      2595        0    0.0000
  15577 C        1607.4065  230.2114   12.2048 C.3    2596        0    0.0000
  15578 C        1607.0011  228.8962   11.5303 C.3    2596        0    0.0000
  15579 H        1608.1737  230.7195   11.6076 H      2596        0    0.0000
  15580 H        1607.8539  230.0087   13.1858 H      2596        0    0.0000
  15581 H        1606.5292  228.2282   12.2616 H      2596        0    0.0000
  15582 H        1606.2534  229.0881   10.7507 H      2596        0    0.0000
  15583 C        1608.2244  228.1571   10.8862 C.3    2597        0    0.0000
  15584 C        1607.8329  227.3730    9.6289 C.3    2597        0    0.0000
  15585 H        1608.9965  228.8974   10.6425 H      2597        0    0.0000
  15586 H        1608.6606  227.4804   11.6311 H      2597        0    0.0000
  15587 H        1607.0045  226.6899    9.8543 H      2597        0    0.0000
  15588 H        1607.4720  228.0605    8.8538 H      2597        0    0.0000
  15589 C        1609.0298  226.5422    9.0502 C.3    2598        0    0.0000
  15590 C        1608.8949  226.3021    7.5424 C.3    2598        0    0.0000
  15591 H        1609.9653  227.0738    9.2642 H      2598        0    0.0000
  15592 H        1609.0837  225.5834    9.5804 H      2598        0    0.0000
  15593 H        1607.8785  225.9644    7.3047 H      2598        0    0.0000
  15594 H        1609.0507  227.2408    6.9965 H      2598        0    0.0000
  15595 C        1609.9174  225.2365    7.0167 C.3    2599        0    0.0000
  15596 C        1609.6125  224.7983    5.5799 C.3    2599        0    0.0000
  15597 H        1610.9286  225.6579    7.0749 H      2599        0    0.0000
  15598 H        1609.8989  224.3679    7.6867 H      2599        0    0.0000
  15599 H        1608.9652  223.9128    5.5861 H      2599        0    0.0000
  15600 H        1609.0610  225.5882    5.0548 H      2599        0    0.0000
  15601 C        1610.9139  224.4675    4.7710 C.3    2600        0    0.0000
  15602 C        1610.6056  223.8716    3.3929 C.3    2600        0    0.0000
  15603 H        1611.5044  225.3854    4.6604 H      2600        0    0.0000
  15604 H        1611.5251  223.7682    5.3549 H      2600        0    0.0000
  15605 H        1610.3586  222.8072    3.4903 H      2600        0    0.0000
  15606 H        1609.7244  224.3612    2.9601 H      2600        0    0.0000
  15607 C        1611.8074  224.0228    2.3979 C.3    2601        0    0.0000
  15608 C        1611.5354  225.0712    1.3136 C.3    2601        0    0.0000
  15609 H        1612.7054  224.2941    2.9667 H      2601        0    0.0000
  15610 H        1612.0093  223.0482    1.9365 H      2601        0    0.0000
  15611 H        1611.0311  224.6054    0.4580 H      2601        0    0.0000
  15612 H        1610.8563  225.8424    1.6979 H      2601        0    0.0000
  15613 C        1612.8503  225.7609    0.8108 C.3    2602        0    0.0000
  15614 C        1612.6481  226.4983   -0.5175 C.3    2602        0    0.0000
  15615 H        1613.1991  226.4606    1.5803 H      2602        0    0.0000
  15616 H        1613.6307  224.9975    0.7022 H      2602        0    0.0000
  15617 H        1612.3810  225.7849   -1.3070 H      2602        0    0.0000
  15618 H        1611.8113  227.2027   -0.4329 H      2602        0    0.0000
  15619 C        1613.9290  227.2861   -0.9606 C.3    2603        0    0.0000
  15620 C        1613.8890  228.7541   -0.5218 C.3    2603        0    0.0000
  15621 H        1614.8123  226.7912   -0.5382 H      2603        0    0.0000
  15622 H        1614.0237  227.2221   -2.0517 H      2603        0    0.0000
  15623 H        1614.3727  229.3857   -1.2772 H      2603        0    0.0000
  15624 H        1612.8492  229.0955   -0.4448 H      2603        0    0.0000
  15625 C        1614.5992  228.9816    0.8570 C.3    2604        0    0.0000
  15626 C        1615.9094  229.7640    0.7135 C.3    2604        0    0.0000
  15627 H        1613.9126  229.5171    1.5243 H      2604        0    0.0000
  15628 H        1614.7924  228.0062    1.3204 H      2604        0    0.0000
  15629 H        1616.4781  229.3904   -0.1469 H      2604        0    0.0000
  15630 H        1615.6962  230.8216    0.5152 H      2604        0    0.0000
  15631 C        1616.8064  229.6609    1.9952 C.3    2605        0    0.0000
  15632 C        1617.3351  231.0272    2.4454 C.3    2605        0    0.0000
  15633 H        1616.2208  229.2003    2.8005 H      2605        0    0.0000
  15634 H        1617.6437  228.9833    1.7873 H      2605        0    0.0000
  15635 H        1617.9674  231.4626    1.6618 H      2605        0    0.0000
  15636 H        1616.5000  231.7219    2.5987 H      2605        0    0.0000
  15637 C        1618.1658  230.9351    3.7717 C.3    2606        0    0.0000
  15638 C        1618.0688  232.2159    4.6079 C.3    2606        0    0.0000
  15639 H        1617.8076  230.0774    4.3545 H      2606        0    0.0000
  15640 H        1619.2134  230.7290    3.5194 H      2606        0    0.0000
  15641 H        1618.4646  233.0669    4.0398 H      2606        0    0.0000
  15642 H        1617.0182  232.4442    4.8259 H      2606        0    0.0000
  15643 C        1618.8527  232.1030    5.9609 C.3    2607        0    0.0000
  15644 C        1618.8035  233.4033    6.7708 C.3    2607        0    0.0000
  15645 H        1618.4287  231.2785    6.5473 H      2607        0    0.0000
  15646 H        1619.8938  231.8333    5.7449 H      2607        0    0.0000
  15647 H        1619.1262  234.2468    6.1479 H      2607        0    0.0000
  15648 H        1617.7723  233.6159    7.0790 H      2607        0    0.0000
  15649 C        1619.7104  233.3423    8.0480 C.3    2608        0    0.0000
  15650 C        1619.1823  234.2322    9.1785 C.3    2608        0    0.0000
  15651 H        1619.7737  232.3010    8.3873 H      2608        0    0.0000
  15652 H        1620.7281  233.6467    7.7739 H      2608        0    0.0000
  15653 H        1618.4589  233.6764    9.7881 H      2608        0    0.0000
  15654 H        1620.0037  234.5181    9.8472 H      2608        0    0.0000
  15655 C        1618.4941  235.5331    8.6386 C.3    2609        0    0.0000
  15656 C        1619.4637  236.7181    8.5715 C.3    2609        0    0.0000
  15657 H        1618.0817  235.3277    7.6430 H      2609        0    0.0000
  15658 H        1617.6442  235.7787    9.2872 H      2609        0    0.0000
  15659 H        1618.9097  237.6621    8.6454 H      2609        0    0.0000
  15660 H        1620.1525  236.6895    9.4248 H      2609        0    0.0000
  15661 C        1620.3013  236.7263    7.2463 C.3    2610        0    0.0000
  15662 C        1621.6722  237.3861    7.4296 C.3    2610        0    0.0000
  15663 H        1620.4246  235.6927    6.8996 H      2610        0    0.0000
  15664 H        1619.7311  237.2528    6.4708 H      2610        0    0.0000
  15665 H        1621.5861  238.2544    8.0945 H      2610        0    0.0000
  15666 H        1622.3649  236.6863    7.9137 H      2610        0    0.0000
  15667 C        1622.2943  237.8521    6.0682 C.3    2611        0    0.0000
  15668 C        1623.1621  236.7654    5.4238 C.3    2611        0    0.0000
  15669 H        1621.4824  238.1377    5.3879 H      2611        0    0.0000
  15670 H        1622.8914  238.7556    6.2430 H      2611        0    0.0000
  15671 H        1622.5563  235.8751    5.2147 H      2611        0    0.0000
  15672 H        1623.5498  237.1164    4.4593 H      2611        0    0.0000
  15673 C        1624.3700  236.3524    6.3338 C.3    2612        0    0.0000
  15674 C        1624.7188  234.8663    6.1972 C.3    2612        0    0.0000
  15675 H        1625.2385  236.9685    6.0696 H      2612        0    0.0000
  15676 H        1624.1233  236.5867    7.3767 H      2612        0    0.0000
  15677 H        1623.8071  234.2589    6.2579 H      2612        0    0.0000
  15678 H        1625.1613  234.6726    5.2122 H      2612        0    0.0000
  15679 C        1625.7200  234.3867    7.3040 C.3    2613        0    0.0000
  15680 C        1626.6442  233.2698    6.8067 C.3    2613        0    0.0000
  15681 H        1626.3143  235.2456    7.6393 H      2613        0    0.0000
  15682 H        1625.1470  234.0415    8.1735 H      2613        0    0.0000
  15683 H        1626.0728  232.3445    6.6631 H      2613        0    0.0000
  15684 H        1627.0636  233.5362    5.8286 H      2613        0    0.0000
  15685 C        1627.8223  232.9867    7.8013 C.3    2614        0    0.0000
  15686 C        1629.1917  233.2780    7.1776 C.3    2614        0    0.0000
  15687 H        1627.6807  233.5989    8.7007 H      2614        0    0.0000
  15688 H        1627.7701  231.9390    8.1220 H      2614        0    0.0000
  15689 H        1629.9031  232.4872    7.4461 H      2614        0    0.0000
  15690 H        1629.1150  233.2747    6.0833 H      2614        0    0.0000
  15691 C        1629.7732  234.6586    7.6394 C.3    2615        0    0.0000
  15692 C        1631.3052  234.6858    7.6008 C.3    2615        0    0.0000
  15693 H        1629.3667  235.4471    6.9940 H      2615        0    0.0000
  15694 H        1629.4187  234.8695    8.6559 H      2615        0    0.0000
  15695 H        1631.7051  233.6929    7.8411 H      2615        0    0.0000
  15696 H        1631.6517  234.9286    6.5886 H      2615        0    0.0000
  15697 C        1631.9064  235.7292    8.6047 C.3    2616        0    0.0000
  15698 C        1633.3409  236.1266    8.2394 C.3    2616        0    0.0000
  15699 H        1631.2623  236.6171    8.6197 H      2616        0    0.0000
  15700 H        1631.8798  235.3035    9.6153 H      2616        0    0.0000
  15701 H        1633.7336  236.8374    8.9770 H      2616        0    0.0000
  15702 H        1633.9949  235.2463    8.2711 H      2616        0    0.0000
  15703 C        1633.4335  236.7739    6.8146 C.3    2617        0    0.0000
  15704 C        1634.8804  236.8895    6.3221 C.3    2617        0    0.0000
  15705 H        1632.8445  236.1702    6.1131 H      2617        0    0.0000
  15706 H        1632.9662  237.7660    6.8459 H      2617        0    0.0000
  15707 H        1635.0747  237.9073    5.9619 H      2617        0    0.0000
  15708 H        1635.5754  236.7105    7.1517 H      2617        0    0.0000
  15709 C        1635.1980  235.8761    5.1690 C.3    2618        0    0.0000
  15710 C        1635.3531  234.4407    5.6834 C.3    2618        0    0.0000
  15711 H        1634.3937  235.9240    4.4246 H      2618        0    0.0000
  15712 H        1636.1168  236.1950    4.6612 H      2618        0    0.0000
  15713 H        1636.4164  234.1802    5.7564 H      2618        0    0.0000
  15714 H        1634.9381  234.3569    6.6955 H      2618        0    0.0000
  15715 C        1634.6396  233.3970    4.7567 C.3    2619        0    0.0000
  15716 C        1633.9010  232.3188    5.5573 C.3    2619        0    0.0000
  15717 H        1633.9369  233.9273    4.1023 H      2619        0    0.0000
  15718 H        1635.3893  232.9332    4.1037 H      2619        0    0.0000
  15719 H        1632.9524  232.7168    5.9383 H      2619        0    0.0000
  15720 H        1633.6487  231.4732    4.9057 H      2619        0    0.0000
  15721 C        1634.7490  231.7905    6.7654 C.3    2620        0    0.0000
  15722 C        1633.8752  231.1702    7.8612 C.3    2620        0    0.0000
  15723 H        1635.4695  231.0506    6.3950 H      2620        0    0.0000
  15724 H        1635.3345  232.6220    7.1768 H      2620        0    0.0000
  15725 H        1632.8740  231.6182    7.8425 H      2620        0    0.0000
  15726 H        1633.7437  230.0970    7.6750 H      2620        0    0.0000
  15727 C        1634.4885  231.3635    9.2908 C.3    2621        0    0.0000
  15728 C        1633.7893  232.4778   10.0771 C.3    2621        0    0.0000
  15729 H        1634.4167  230.4152    9.8376 H      2621        0    0.0000
  15730 H        1635.5576  231.5886    9.1894 H      2621        0    0.0000
  15731 H        1632.8533  232.7594    9.5790 H      2621        0    0.0000
  15732 H        1633.5179  232.1188   11.0777 H      2621        0    0.0000
  15733 C        1634.6871  233.7544   10.2247 C.3    2622        0    0.0000
  15734 C        1634.6760  234.3105   11.6527 C.3    2622        0    0.0000
  15735 H        1635.7124  233.5019    9.9273 H      2622        0    0.0000
  15736 H        1634.3341  234.5182    9.5208 H      2622        0    0.0000
  15737 H        1634.3527  233.5336   12.3566 H      2622        0    0.0000
  15738 H        1635.6908  234.6025   11.9506 H      2622        0    0.0000
  15739 C        1633.7294  235.5514   11.7998 C.3    2623        0    0.0000
  15740 C        1633.0273  235.5881   13.1618 C.3    2623        0    0.0000
  15741 H        1634.3192  236.4652   11.6559 H      2623        0    0.0000
  15742 H        1632.9857  235.5263   10.9938 H      2623        0    0.0000
  15743 H        1632.8553  234.5670   13.5239 H      2623        0    0.0000
  15744 H        1633.6689  236.0812   13.9026 H      2623        0    0.0000
  15745 C        1631.6537  236.3411   13.1019 C.3    2624        0    0.0000
  15746 C        1630.4655  235.3765   13.0206 C.3    2624        0    0.0000
  15747 H        1631.5607  236.9782   13.9902 H      2624        0    0.0000
  15748 H        1631.6550  237.0105   12.2328 H      2624        0    0.0000
  15749 H        1630.3800  234.8054   13.9534 H      2624        0    0.0000
  15750 H        1629.5305  235.9397   12.9093 H      2624        0    0.0000
  15751 C        1630.5959  234.3726   11.8236 C.3    2625        0    0.0000
  15752 C        1629.7941  233.0869   12.0539 C.3    2625        0    0.0000
  15753 H        1630.2552  234.8693   10.9067 H      2625        0    0.0000
  15754 H        1631.6565  234.1333   11.6768 H      2625        0    0.0000
  15755 H        1629.9458  232.7276   13.0793 H      2625        0    0.0000
  15756 H        1628.7212  233.2884   11.9461 H      2625        0    0.0000
  15757 C        1630.1973  231.9482   11.0547 C.3    2626        0    0.0000
  15758 C        1629.8196  230.5574   11.5759 C.3    2626        0    0.0000
  15759 H        1629.7084  232.1343   10.0905 H      2626        0    0.0000
  15760 H        1631.2783  232.0017   10.8752 H      2626        0    0.0000
  15761 H        1630.4906  230.2669   12.3936 H      2626        0    0.0000
  15762 H        1628.8047  230.5746   11.9923 H      2626        0    0.0000
  15763 C        1629.8868  229.4642   10.4544 C.3    2627        0    0.0000
  15764 C        1631.2166  228.7020   10.4653 C.3    2627        0    0.0000
  15765 H        1629.0518  228.7659   10.5907 H      2627        0    0.0000
  15766 H        1629.7380  229.9470    9.4806 H      2627        0    0.0000
  15767 H        1632.0256  229.3617   10.8020 H      2627        0    0.0000
  15768 H        1631.1682  227.8718   11.1810 H      2627        0    0.0000
  15769 C        1631.5853  228.1304    9.0529 C.3    2628        0    0.0000
  15770 C        1632.6372  227.0186    9.1326 C.3    2628        0    0.0000
  15771 H        1630.6731  227.7517    8.5755 H      2628        0    0.0000
  15772 H        1631.9524  228.9512    8.4242 H      2628        0    0.0000
  15773 H        1632.4834  226.4195   10.0388 H      2628        0    0.0000
  15774 H        1632.5280  226.3356    8.2811 H      2628        0    0.0000
  15775 C        1634.0995  227.5837    9.1427 C.3    2629        0    0.0000
  15776 C        1635.0544  226.7391    8.2919 C.3    2629        0    0.0000
  15777 H        1634.0817  228.6171    8.7746 H      2629        0    0.0000
  15778 H        1634.4557  227.6246   10.1795 H      2629        0    0.0000
  15779 H        1635.9823  226.5486    8.8450 H      2629        0    0.0000
  15780 H        1634.6057  225.7601    8.0825 H      2629        0    0.0000
  15781 C        1635.4102  227.4331    6.9320 C.3    2630        0    0.0000
  15782 C        1635.1494  226.5205    5.7285 C.3    2630        0    0.0000
  15783 H        1634.8210  228.3540    6.8402 H      2630        0    0.0000
  15784 H        1636.4646  227.7345    6.9540 H      2630        0    0.0000
  15785 H        1636.0623  225.9702    5.4690 H      2630        0    0.0000
  15786 H        1634.3907  225.7699    5.9830 H      2630        0    0.0000
  15787 C        1634.6664  227.3205    4.4699 C.3    2631        0    0.0000
  15788 C        1635.8364  227.8232    3.6169 C.3    2631        0    0.0000
  15789 H        1634.0135  226.6748    3.8697 H      2631        0    0.0000
  15790 H        1634.0530  228.1668    4.8030 H      2631        0    0.0000
  15791 H        1636.5740  228.3303    4.2514 H      2631        0    0.0000
  15792 H        1636.3528  226.9755    3.1496 H      2631        0    0.0000
  15793 C        1635.3706  228.8126    2.4938 C.3    2632        0    0.0000
  15794 C        1636.4358  229.8657    2.1691 C.3    2632        0    0.0000
  15795 H        1635.1254  228.2356    1.5936 H      2632        0    0.0000
  15796 H        1634.4434  229.3025    2.8162 H      2632        0    0.0000
  15797 H        1636.7311  230.3963    3.0828 H      2632        0    0.0000
  15798 H        1637.3397  229.3795    1.7812 H      2632        0    0.0000
  15799 C        1635.9342  230.9132    1.1162 C.3    2633        0    0.0000
  15800 C        1636.6904  232.2429    1.2141 C.3    2633        0    0.0000
  15801 H        1636.0497  230.4879    0.1116 H      2633        0    0.0000
  15802 H        1634.8602  231.0793    1.2665 H      2633        0    0.0000
  15803 H        1637.1011  232.3685    2.2236 H      2633        0    0.0000
  15804 H        1637.5436  232.2419    0.5248 H      2633        0    0.0000
  15805 C        1635.7754  233.4723    0.8842 C.3    2634        0    0.0000
  15806 C        1636.4791  234.8078    1.1496 C.3    2634        0    0.0000
  15807 H        1635.4674  233.4118   -0.1670 H      2634        0    0.0000
  15808 H        1634.8601  233.4033    1.4852 H      2634        0    0.0000
  15809 H        1636.6986  234.9112    2.2194 H      2634        0    0.0000
  15810 H        1637.4427  234.8359    0.6260 H      2634        0    0.0000
  15811 C        1635.6182  236.0345    0.6896 C.3    2635        0    0.0000
  15812 C        1635.5964  237.1543    1.7360 C.3    2635        0    0.0000
  15813 H        1636.0204  236.4131   -0.2583 H      2635        0    0.0000
  15814 H        1634.5964  235.6920    0.4838 H      2635        0    0.0000
  15815 H        1635.7646  236.7372    2.7366 H      2635        0    0.0000
  15816 H        1636.4143  237.8609    1.5476 H      2635        0    0.0000
  15817 C        1634.2399  237.9399    1.7374 C.3    2636        0    0.0000
  15818 C        1634.1091  238.8708    2.9479 C.3    2636        0    0.0000
  15819 H        1634.1654  238.5184    0.8083 H      2636        0    0.0000
  15820 H        1633.4136  237.2186    1.7265 H      2636        0    0.0000
  15821 H        1634.6350  238.4426    3.8102 H      2636        0    0.0000
  15822 H        1634.5872  239.8349    2.7345 H      2636        0    0.0000
  15823 C        1632.6135  239.1248    3.3431 C.3    2637        0    0.0000
  15824 C        1632.4678  240.2517    4.3717 C.3    2637        0    0.0000
  15825 H        1632.0446  239.3668    2.4369 H      2637        0    0.0000
  15826 H        1632.1902  238.1945    3.7419 H      2637        0    0.0000
  15827 H        1633.3036  240.2232    5.0818 H      2637        0    0.0000
  15828 H        1632.5133  241.2265    3.8706 H      2637        0    0.0000
  15829 C        1631.1224  240.1564    5.1706 C.3    2638        0    0.0000
  15830 C        1631.2313  240.7769    6.5679 C.3    2638        0    0.0000
  15831 H        1630.3341  240.6587    4.5964 H      2638        0    0.0000
  15832 H        1630.8318  239.1015    5.2490 H      2638        0    0.0000
  15833 H        1631.7689  240.0969    7.2405 H      2638        0    0.0000
  15834 H        1631.8167  241.7037    6.5233 H      2638        0    0.0000
  15835 C        1629.8274  241.0951    7.1878 C.3    2639        0    0.0000
  15836 C        1629.5148  240.2128    8.4015 C.3    2639        0    0.0000
  15837 H        1629.7992  242.1535    7.4750 H      2639        0    0.0000
  15838 H        1629.0604  240.9577    6.4154 H      2639        0    0.0000
  15839 H        1628.5123  240.4412    8.7843 H      2639        0    0.0000
  15840 H        1629.5060  239.1562    8.1061 H      2639        0    0.0000
  15841 C        1630.5540  240.4052    9.5594 C.3    2640        0    0.0000
  15842 C        1629.9244  240.2101   10.9431 C.3    2640        0    0.0000
  15843 H        1631.3774  239.6946    9.4173 H      2640        0    0.0000
  15844 H        1630.9877  241.4099    9.4819 H      2640        0    0.0000
  15845 H        1629.4509  241.1421   11.2758 H      2640        0    0.0000
  15846 H        1629.1309  239.4543   10.8922 H      2640        0    0.0000
  15847 C        1630.9766  239.7664   12.0173 C.3    2641        0    0.0000
  15848 C        1632.2021  240.6863   12.0446 C.3    2641        0    0.0000
  15849 H        1630.4930  239.7546   13.0020 H      2641        0    0.0000
  15850 H        1631.2849  238.7351   11.8053 H      2641        0    0.0000
  15851 H        1631.9056  241.7151   11.8057 H      2641        0    0.0000
  15852 H        1632.6332  240.7088   13.0533 H      2641        0    0.0000
  15853 C        1633.3092  240.2314   11.0322 C.3    2642        0    0.0000
  15854 C        1634.6167  241.0106   11.2123 C.3    2642        0    0.0000
  15855 H        1633.4900  239.1576   11.1648 H      2642        0    0.0000
  15856 H        1632.9303  240.3634   10.0112 H      2642        0    0.0000
  15857 H        1634.4026  242.0303   11.5557 H      2642        0    0.0000
  15858 H        1635.2314  240.5392   11.9890 H      2642        0    0.0000
  15859 C        1635.4495  241.0883    9.8865 C.3    2643        0    0.0000
  15860 C        1636.4648  239.9460    9.7705 C.3    2643        0    0.0000
  15861 H        1634.7595  241.0663    9.0337 H      2643        0    0.0000
  15862 H        1635.9656  242.0556    9.8492 H      2643        0    0.0000
  15863 H        1637.0895  239.9051   10.6714 H      2643        0    0.0000
  15864 H        1635.9424  238.9836    9.7052 H      2643        0    0.0000
  15865 C        1637.3944  240.1023    8.5179 C.3    2644        0    0.0000
  15866 C        1638.2649  238.8630    8.2822 C.3    2644        0    0.0000
  15867 H        1636.7706  240.2970    7.6369 H      2644        0    0.0000
  15868 H        1638.0287  240.9867    8.6564 H      2644        0    0.0000
  15869 H        1639.0399  238.7950    9.0556 H      2644        0    0.0000
  15870 H        1637.6559  237.9543    8.3657 H      2644        0    0.0000
  15871 C        1638.9554  238.8810    6.8749 C.3    2645        0    0.0000
  15872 C        1639.9026  237.6923    6.6774 C.3    2645        0    0.0000
  15873 H        1638.1790  238.8762    6.0999 H      2645        0    0.0000
  15874 H        1639.5061  239.8232    6.7634 H      2645        0    0.0000
  15875 H        1640.6051  237.6277    7.5174 H      2645        0    0.0000
  15876 H        1639.3330  236.7547    6.6701 H      2645        0    0.0000
  15877 C        1640.7185  237.7982    5.3431 C.3    2646        0    0.0000
  15878 C        1641.3823  236.4708    4.9610 C.3    2646        0    0.0000
  15879 H        1640.0448  238.1262    4.5418 H      2646        0    0.0000
  15880 H        1641.4792  238.5808    5.4549 H      2646        0    0.0000
  15881 H        1640.7081  235.8821    4.3262 H      2646        0    0.0000
  15882 H        1642.2870  236.6591    4.3697 H      2646        0    0.0000
  15883 C        1641.7684  235.6161    6.2170 C.3    2647        0    0.0000
  15884 C        1641.6805  234.1105    5.9444 C.3    2647        0    0.0000
  15885 H        1642.7861  235.8833    6.5273 H      2647        0    0.0000
  15886 H        1641.1044  235.8875    7.0470 H      2647        0    0.0000
  15887 H        1640.7233  233.8702    5.4652 H      2647        0    0.0000
  15888 H        1642.4683  233.8083    5.2432 H      2647        0    0.0000
  15889 C        1641.8170  233.2604    7.2545 C.3    2648        0    0.0000
  15890 C        1640.4735  232.6852    7.7163 C.3    2648        0    0.0000
  15891 H        1642.5325  232.4482    7.0761 H      2648        0    0.0000
  15892 H        1642.2467  233.8914    8.0423 H      2648        0    0.0000
  15893 H        1640.0123  232.1086    6.9048 H      2648        0    0.0000
  15894 H        1640.6290  231.9882    8.5491 H      2648        0    0.0000
  15895 C        1639.4740  233.8033    8.1729 C.3    2649        0    0.0000
  15896 C        1640.0521  234.6781    9.2908 C.3    2649        0    0.0000
  15897 H        1639.2167  234.4234    7.3053 H      2649        0    0.0000
  15898 H        1638.5433  233.3298    8.5091 H      2649        0    0.0000
  15899 H        1641.1387  234.5395    9.3532 H      2649        0    0.0000
  15900 H        1639.8823  235.7381    9.0649 H      2649        0    0.0000
  15901 C        1639.4199  234.3517   10.6877 C.3    2650        0    0.0000
  15902 C        1639.8180  235.3735   11.7583 C.3    2650        0    0.0000
  15903 H        1638.3282  234.3222   10.5835 H      2650        0    0.0000
  15904 H        1639.7347  233.3459   10.9921 H      2650        0    0.0000
  15905 H        1638.9956  236.0795   11.9289 H      2650        0    0.0000
  15906 H        1640.0006  234.8660   12.7136 H      2650        0    0.0000
  15907 C        1641.1022  236.1804   11.3614 C.3    2651        0    0.0000
  15908 C        1641.0306  237.6440   11.8106 C.3    2651        0    0.0000
  15909 H        1641.9780  235.6926   11.8069 H      2651        0    0.0000
  15910 H        1641.2311  236.1267   10.2733 H      2651        0    0.0000
  15911 H        1640.2227  238.1615   11.2788 H      2651        0    0.0000
  15912 H        1640.7896  237.6981   12.8794 H      2651        0    0.0000
  15913 C        1642.3746  238.4098   11.5563 C.3    2652        0    0.0000
  15914 C        1642.3317  239.2486   10.2743 C.3    2652        0    0.0000
  15915 H        1642.5837  239.0531   12.4200 H      2652        0    0.0000
  15916 H        1643.1921  237.6804   11.5015 H      2652        0    0.0000
  15917 H        1641.2909  239.4392    9.9843 H      2652        0    0.0000
  15918 H        1642.7941  240.2278   10.4497 H      2652        0    0.0000
  15919 C        1643.0687  238.5484    9.0812 C.3    2653        0    0.0000
  15920 C        1644.4594  239.1415    8.8289 C.3    2653        0    0.0000
  15921 H        1643.1508  237.4758    9.2968 H      2653        0    0.0000
  15922 H        1642.4506  238.6421    8.1797 H      2653        0    0.0000
  15923 H        1644.4446  239.7638    7.9255 H      2653        0    0.0000
  15924 H        1644.7441  239.7988    9.6597 H      2653        0    0.0000
  15925 C        1645.5563  238.0339    8.6619 C.3    2654        0    0.0000
  15926 C        1646.6577  238.4505    7.6808 C.3    2654        0    0.0000
  15927 H        1645.9911  237.8160    9.6451 H      2654        0    0.0000
  15928 H        1645.0760  237.1095    8.3180 H      2654        0    0.0000
  15929 H        1646.2191  238.6980    6.7061 H      2654        0    0.0000
  15930 H        1647.1584  239.3579    8.0405 H      2654        0    0.0000
  15931 C        1647.7314  237.3261    7.4807 C.3    2655        0    0.0000
  15932 C        1648.2216  237.2423    6.0309 C.3    2655        0    0.0000
  15933 H        1648.5764  237.5204    8.1528 H      2655        0    0.0000
  15934 H        1647.2992  236.3657    7.7877 H      2655        0    0.0000
  15935 H        1647.4366  236.8181    5.3924 H      2655        0    0.0000
  15936 H        1648.4314  238.2480    5.6461 H      2655        0    0.0000
  15937 C        1649.5146  236.3676    5.8905 C.3    2656        0    0.0000
  15938 C        1649.3113  235.1774    4.9465 C.3    2656        0    0.0000
  15939 H        1650.3325  237.0014    5.5260 H      2656        0    0.0000
  15940 H        1649.8109  236.0122    6.8853 H      2656        0    0.0000
  15941 H        1648.6145  235.4487    4.1438 H      2656        0    0.0000
  15942 H        1650.2606  234.9137    4.4639 H      2656        0    0.0000
  15943 C        1648.7560  233.9155    5.6925 C.3    2657        0    0.0000
  15944 C        1647.4233  233.4346    5.1077 C.3    2657        0    0.0000
  15945 H        1649.5029  233.1139    5.6354 H      2657        0    0.0000
  15946 H        1648.6346  234.1580    6.7555 H      2657        0    0.0000
  15947 H        1646.6150  234.1139    5.4054 H      2657        0    0.0000
  15948 H        1647.4644  233.4549    4.0116 H      2657        0    0.0000
  15949 C        1647.0601  231.9823    5.5728 C.3    2658        0    0.0000
  15950 C        1646.0403  231.9768    6.7170 C.3    2658        0    0.0000
  15951 H        1646.6653  231.4245    4.7145 H      2658        0    0.0000
  15952 H        1647.9789  231.4708    5.8855 H      2658        0    0.0000
  15953 H        1645.1830  232.6111    6.4598 H      2658        0    0.0000
  15954 H        1645.6486  230.9631    6.8669 H      2658        0    0.0000
  15955 C        1646.6577  232.4845    8.0656 C.3    2659        0    0.0000
  15956 C        1645.5839  232.9207    9.0682 C.3    2659        0    0.0000
  15957 H        1647.2720  231.6842    8.4967 H      2659        0    0.0000
  15958 H        1647.3347  233.3207    7.8518 H      2659        0    0.0000
  15959 H        1645.0076  233.7605    8.6605 H      2659        0    0.0000
  15960 H        1644.8723  232.1030    9.2371 H      2659        0    0.0000
  15961 C        1646.1964  233.3500   10.4458 C.3    2660        0    0.0000
  15962 C        1646.0792  234.8587   10.6889 C.3    2660        0    0.0000
  15963 H        1645.6870  232.7993   11.2463 H      2660        0    0.0000
  15964 H        1647.2499  233.0450   10.4748 H      2660        0    0.0000
  15965 H        1645.9307  235.3827    9.7366 H      2660        0    0.0000
  15966 H        1645.1986  235.0728   11.3071 H      2660        0    0.0000
  15967 C        1647.3485  235.4468   11.3965 C.3    2661        0    0.0000
  15968 C        1648.5060  235.6744   10.4178 C.3    2661        0    0.0000
  15969 H        1647.0762  236.3916   11.8831 H      2661        0    0.0000
  15970 H        1647.6593  234.7600   12.1934 H      2661        0    0.0000
  15971 H        1648.6488  234.7855    9.7910 H      2661        0    0.0000
  15972 H        1648.2676  236.5031    9.7395 H      2661        0    0.0000
  15973 C        1649.8523  235.9952   11.1541 C.3    2662        0    0.0000
  15974 C        1651.0449  236.0356   10.1924 C.3    2662        0    0.0000
  15975 H        1649.7524  236.9582   11.6701 H      2662        0    0.0000
  15976 H        1650.0201  235.2380   11.9300 H      2662        0    0.0000
  15977 H        1651.7369  235.2144   10.4166 H      2662        0    0.0000
  15978 H        1650.7018  235.8857    9.1611 H      2662        0    0.0000
  15979 C        1651.8271  237.3917   10.2726 C.3    2663        0    0.0000
  15980 C        1652.9800  237.4579    9.2647 C.3    2663        0    0.0000
  15981 H        1651.1251  238.2159   10.0957 H      2663        0    0.0000
  15982 H        1652.2114  237.5186   11.2924 H      2663        0    0.0000
  15983 H        1653.8917  237.0388    9.7081 H      2663        0    0.0000
  15984 H        1652.7466  236.8445    8.3855 H      2663        0    0.0000
  15985 C        1653.2745  238.9240    8.7943 C.3    2664        0    0.0000
  15986 C        1654.3113  238.9749    7.6666 C.3    2664        0    0.0000
  15987 H        1652.3354  239.3844    8.4630 H      2664        0    0.0000
  15988 H        1653.6254  239.5076    9.6545 H      2664        0    0.0000
  15989 H        1655.3062  239.1829    8.0793 H      2664        0    0.0000
  15990 H        1654.3741  237.9992    7.1691 H      2664        0    0.0000
  15991 C        1653.9702  240.0673    6.5951 C.3    2665        0    0.0000
  15992 C        1654.5491  239.7298    5.2167 C.3    2665        0    0.0000
  15993 H        1652.8800  240.1707    6.5302 H      2665        0    0.0000
  15994 H        1654.3584  241.0339    6.9397 H      2665        0    0.0000
  15995 H        1654.3195  240.5326    4.5054 H      2665        0    0.0000
  15996 H        1655.6427  239.6630    5.2741 H      2665        0    0.0000
  15997 C        1653.9894  238.3786    4.6520 C.3    2666        0    0.0000
  15998 C        1655.0439  237.5996    3.8583 C.3    2666        0    0.0000
  15999 H        1653.6229  237.7706    5.4884 H      2666        0    0.0000
  16000 H        1653.1223  238.5938    4.0152 H      2666        0    0.0000
  16001 H        1654.5969  237.1824    2.9474 H      2666        0    0.0000
  16002 H        1655.8459  238.2747    3.5349 H      2666        0    0.0000
  16003 C        1655.6730  236.4314    4.6933 C.3    2667        0    0.0000
  16004 C        1656.7168  236.9320    5.6978 C.3    2667        0    0.0000
  16005 H        1654.8698  235.9000    5.2189 H      2667        0    0.0000
  16006 H        1656.1296  235.7103    4.0043 H      2667        0    0.0000
  16007 H        1657.7233  236.8412    5.2709 H      2667        0    0.0000
  16008 H        1656.5579  237.9973    5.9059 H      2667        0    0.0000
  16009 C        1656.6680  236.1401    7.0498 C.3    2668        0    0.0000
  16010 C        1657.8859  236.4265    7.9350 C.3    2668        0    0.0000
  16011 H        1655.7457  236.4050    7.5816 H      2668        0    0.0000
  16012 H        1656.6073  235.0671    6.8291 H      2668        0    0.0000
  16013 H        1658.8094  236.1961    7.3900 H      2668        0    0.0000
  16014 H        1657.9259  237.4938    8.1858 H      2668        0    0.0000
  16015 C        1657.8627  235.5957    9.2642 C.3    2669        0    0.0000
  16016 C        1658.3298  236.4170   10.4708 C.3    2669        0    0.0000
  16017 H        1656.8435  235.2264    9.4325 H      2669        0    0.0000
  16018 H        1658.5013  234.7124    9.1402 H      2669        0    0.0000
  16019 H        1657.5211  237.0737   10.8147 H      2669        0    0.0000
  16020 H        1658.5723  235.7508   11.3081 H      2669        0    0.0000
  16021 C        1659.5874  237.2934   10.1421 C.3    2670        0    0.0000
  16022 C        1660.8959  236.6086   10.5521 C.3    2670        0    0.0000
  16023 H        1659.5967  237.5093    9.0666 H      2670        0    0.0000
  16024 H        1659.4904  238.2577   10.6562 H      2670        0    0.0000
  16025 H        1660.8242  236.2490   11.5859 H      2670        0    0.0000
  16026 H        1661.0720  235.7269    9.9235 H      2670        0    0.0000
  16027 C        1662.1305  237.5676   10.4349 C.3    2671        0    0.0000
  16028 C        1662.7117  237.5956    9.0169 C.3    2671        0    0.0000
  16029 H        1661.8237  238.5770   10.7358 H      2671        0    0.0000
  16030 H        1662.8978  237.2452   11.1495 H      2671        0    0.0000
  16031 H        1663.7473  237.2338    9.0275 H      2671        0    0.0000
  16032 H        1662.1475  236.9166    8.3657 H      2671        0    0.0000
  16033 C        1662.6849  239.0330    8.3922 C.3    2672        0    0.0000
  16034 C        1662.0905  239.0415    6.9795 C.3    2672        0    0.0000
  16035 H        1662.1044  239.6931    9.0486 H      2672        0    0.0000
  16036 H        1663.7078  239.4290    8.3723 H      2672        0    0.0000
  16037 H        1662.7527  238.5039    6.2896 H      2672        0    0.0000
  16038 H        1661.1301  238.5110    6.9723 H      2672        0    0.0000
  16039 C        1661.8687  240.4954    6.4370 C.3    2673        0    0.0000
  16040 C        1660.6063  240.6075    5.5752 C.3    2673        0    0.0000
  16041 H        1661.8054  241.1846    7.2882 H      2673        0    0.0000
  16042 H        1662.7494  240.7937    5.8548 H      2673        0    0.0000
  16043 H        1659.7632  240.1169    6.0772 H      2673        0    0.0000
  16044 H        1660.3284  241.6616    5.4505 H      2673        0    0.0000
  16045 C        1660.7950  239.9637    4.1584 C.3    2674        0    0.0000
  16046 C        1659.7274  240.4290    3.1621 C.3    2674        0    0.0000
  16047 H        1661.7946  240.2180    3.7847 H      2674        0    0.0000
  16048 H        1660.7649  238.8717    4.2594 H      2674        0    0.0000
  16049 H        1659.8867  239.9490    2.1884 H      2674        0    0.0000
  16050 H        1658.7321  240.1208    3.5059 H      2674        0    0.0000
  16051 C        1659.7351  241.9843    2.9661 C.3    2675        0    0.0000
  16052 C        1660.3258  242.3964    1.6133 C.3    2675        0    0.0000
  16053 H        1658.7075  242.3572    3.0571 H      2675        0    0.0000
  16054 H        1660.3094  242.4406    3.7820 H      2675        0    0.0000
  16055 H        1660.5817  241.5049    1.0272 H      2675        0    0.0000
  16056 H        1659.5807  242.9527    1.0312 H      2675        0    0.0000
  16057 C        1661.6089  243.2830    1.7705 C.3    2676        0    0.0000
  16058 C        1662.8936  242.5056    1.4627 C.3    2676        0    0.0000
  16059 H        1661.5243  244.1492    1.1025 H      2676        0    0.0000
  16060 H        1661.6436  243.6767    2.7938 H      2676        0    0.0000
  16061 H        1663.1030  241.7911    2.2683 H      2676        0    0.0000
  16062 H        1662.7666  241.9177    0.5452 H      2676        0    0.0000
  16063 C        1664.1327  243.4502    1.2902 C.3    2677        0    0.0000
  16064 C        1665.2483  243.1338    2.2925 C.3    2677        0    0.0000
  16065 H        1664.5103  243.3544    0.2646 H      2677        0    0.0000
  16066 H        1663.8040  244.4901    1.4091 H      2677        0    0.0000
  16067 H        1665.2450  242.0636    2.5334 H      2677        0    0.0000
  16068 H        1666.2268  243.3537    1.8479 H      2677        0    0.0000
  16069 C        1665.1022  243.9514    3.6218 C.3    2678        0    0.0000
  16070 C        1665.3375  243.0863    4.8648 C.3    2678        0    0.0000
  16071 H        1665.8143  244.7857    3.6039 H      2678        0    0.0000
  16072 H        1664.0990  244.3941    3.6561 H      2678        0    0.0000
  16073 H        1665.4631  243.7241    5.7487 H      2678        0    0.0000
  16074 H        1664.4612  242.4541    5.0546 H      2678        0    0.0000
  16075 C        1666.6005  242.1690    4.7200 C.3    2679        0    0.0000
  16076 C        1667.0964  241.6456    6.0724 C.3    2679        0    0.0000
  16077 H        1666.3533  241.3289    4.0591 H      2679        0    0.0000
  16078 H        1667.3955  242.7380    4.2222 H      2679        0    0.0000
  16079 H        1667.3862  242.4846    6.7170 H      2679        0    0.0000
  16080 H        1666.2876  241.1153    6.5899 H      2679        0    0.0000
  16081 C        1668.3203  240.6775    5.9221 C.3    2680        0    0.0000
  16082 C        1668.8401  240.1839    7.2767 C.3    2680        0    0.0000
  16083 H        1668.0221  239.8244    5.3001 H      2680        0    0.0000
  16084 H        1669.1190  241.1988    5.3800 H      2680        0    0.0000
  16085 H        1668.0126  240.1110    7.9933 H      2680        0    0.0000
  16086 H        1669.2581  239.1749    7.1745 H      2680        0    0.0000
  16087 C        1669.9410  241.1288    7.8707 C.3    2681        0    0.0000
  16088 C        1669.9000  241.1775    9.4021 C.3    2681        0    0.0000
  16089 H        1670.9250  240.7823    7.5318 H      2681        0    0.0000
  16090 H        1669.8026  242.1361    7.4587 H      2681        0    0.0000
  16091 H        1670.0780  240.1768    9.8153 H      2681        0    0.0000
  16092 H        1670.7037  241.8218    9.7796 H      2681        0    0.0000
  16093 C        1668.5287  241.7108    9.9430 C.3    2682        0    0.0000
  16094 C        1668.2848  241.3107   11.4024 C.3    2682        0    0.0000
  16095 H        1668.5105  242.8033    9.8444 H      2682        0    0.0000
  16096 H        1667.7230  241.3236    9.3071 H      2682        0    0.0000
  16097 H        1669.2355  241.0552   11.8863 H      2682        0    0.0000
  16098 H        1667.8651  242.1573   11.9595 H      2682        0    0.0000
  16099 C        1667.3096  240.0898   11.5284 C.3    2683        0    0.0000
  16100 C        1668.0516  238.7489   11.5065 C.3    2683        0    0.0000
  16101 H        1666.7383  240.1883   12.4596 H      2683        0    0.0000
  16102 H        1666.5833  240.1311   10.7072 H      2683        0    0.0000
  16103 H        1669.1068  238.9070   11.2508 H      2683        0    0.0000
  16104 H        1668.0343  238.2930   12.5042 H      2683        0    0.0000
  16105 C        1667.4283  237.7415   10.4797 C.3    2684        0    0.0000
  16106 C        1668.4827  236.8194    9.8576 C.3    2684        0    0.0000
  16107 H        1666.6616  237.1457   10.9902 H      2684        0    0.0000
  16108 H        1666.9148  238.3097    9.6943 H      2684        0    0.0000
  16109 H        1668.9327  236.1863   10.6322 H      2684        0    0.0000
  16110 H        1668.0112  236.1440    9.1331 H      2684        0    0.0000
  16111 C        1669.6206  237.6203    9.1355 C.3    2685        0    0.0000
  16112 C        1670.9535  236.8634    9.1352 C.3    2685        0    0.0000
  16113 H        1669.3068  237.8297    8.1054 H      2685        0    0.0000
  16114 H        1669.7395  238.5913    9.6322 H      2685        0    0.0000
  16115 H        1671.3856  236.8624   10.1436 H      2685        0    0.0000
  16116 H        1670.7898  235.8137    8.8616 H      2685        0    0.0000
  16117 C        1671.9917  237.4889    8.1411 C.3    2686        0    0.0000
  16118 C        1672.2800  236.5705    6.9484 C.3    2686        0    0.0000
  16119 H        1671.6066  238.4538    7.7884 H      2686        0    0.0000
  16120 H        1672.9199  237.7004    8.6860 H      2686        0    0.0000
  16121 H        1673.1428  235.9292    7.1674 H      2686        0    0.0000
  16122 H        1671.4274  235.9026    6.7733 H      2686        0    0.0000
  16123 C        1672.5692  237.3756    5.6349 C.3    2687        0    0.0000
  16124 C        1671.3191  237.5311    4.7617 C.3    2687        0    0.0000
  16125 H        1672.9646  238.3627    5.9049 H      2687        0    0.0000
  16126 H        1673.3594  236.8627    5.0725 H      2687        0    0.0000
  16127 H        1671.3053  236.7579    3.9836 H      2687        0    0.0000
  16128 H        1670.4165  237.3845    5.3677 H      2687        0    0.0000
  16129 C        1671.2444  238.9391    4.0765 C.3    2688        0    0.0000
  16130 C        1670.4419  238.9081    2.7713 C.3    2688        0    0.0000
  16131 H        1670.7928  239.6507    4.7790 H      2688        0    0.0000
  16132 H        1672.2648  239.2925    3.8825 H      2688        0    0.0000
  16133 H        1670.5762  239.8496    2.2245 H      2688        0    0.0000
  16134 H        1670.8156  238.1090    2.1189 H      2688        0    0.0000
  16135 C        1668.9106  238.6824    3.0204 C.3    2689        0    0.0000
  16136 C        1668.3713  237.4661    2.2594 C.3    2689        0    0.0000
  16137 H        1668.7423  238.5573    4.0972 H      2689        0    0.0000
  16138 H        1668.3665  239.5860    2.7193 H      2689        0    0.0000
  16139 H        1667.9395  237.7827    1.3019 H      2689        0    0.0000
  16140 H        1669.1913  236.7767    2.0225 H      2689        0    0.0000
  16141 C        1667.2794  236.6915    3.0749 C.3    2690        0    0.0000
  16142 C        1667.8821  235.5840    3.9464 C.3    2690        0    0.0000
  16143 H        1666.7319  237.4068    3.7011 H      2690        0    0.0000
  16144 H        1666.5514  236.2646    2.3741 H      2690        0    0.0000
  16145 H        1667.8290  234.6219    3.4219 H      2690        0    0.0000
  16146 H        1668.9451  235.7851    4.1285 H      2690        0    0.0000
  16147 C        1667.1497  235.4487    5.3258 C.3    2691        0    0.0000
  16148 C        1666.6418  234.0244    5.5764 C.3    2691        0    0.0000
  16149 H        1667.8407  235.7475    6.1237 H      2691        0    0.0000
  16150 H        1666.3124  236.1568    5.3525 H      2691        0    0.0000
  16151 H        1665.5830  233.9485    5.2997 H      2691        0    0.0000
  16152 H        1667.1851  233.3140    4.9413 H      2691        0    0.0000
  16153 C        1666.8051  233.5906    7.0740 C.3    2692        0    0.0000
  16154 C        1665.5713  233.9337    7.9159 C.3    2692        0    0.0000
  16155 H        1666.9969  232.5111    7.1104 H      2692        0    0.0000
  16156 H        1667.6931  234.0826    7.4899 H      2692        0    0.0000
  16157 H        1665.1088  234.8574    7.5465 H      2692        0    0.0000
  16158 H        1664.8171  233.1430    7.8181 H      2692        0    0.0000
  16159 C        1665.9192  234.1148    9.4336 C.3    2693        0    0.0000
  16160 C        1664.7480  233.7377   10.3472 C.3    2693        0    0.0000
  16161 H        1666.7954  233.4988    9.6715 H      2693        0    0.0000
  16162 H        1666.2112  235.1580    9.6074 H      2693        0    0.0000
  16163 H        1663.7993  234.0413    9.8873 H      2693        0    0.0000
  16164 H        1664.7034  232.6485   10.4715 H      2693        0    0.0000
  16165 C        1664.8595  234.4035   11.7620 C.3    2694        0    0.0000
  16166 C        1666.2877  234.3557   12.3157 C.3    2694        0    0.0000
  16167 H        1664.5182  235.4438   11.6911 H      2694        0    0.0000
  16168 H        1664.1727  233.8928   12.4482 H      2694        0    0.0000
  16169 H        1666.4645  233.3965   12.8181 H      2694        0    0.0000
  16170 H        1667.0121  234.4190   11.4942 H      2694        0    0.0000
  16171 C        1666.5712  235.5171   13.3298 C.3    2695        0    0.0000
  16172 C        1667.4635  235.0684   14.4923 C.3    2695        0    0.0000
  16173 H        1667.0435  236.3486   12.7922 H      2695        0    0.0000
  16174 H        1665.6145  235.8929   13.7133 H      2695        0    0.0000
  16175 H        1666.8658  234.5326   15.2402 H      2695        0    0.0000
  16176 H        1668.2234  234.3637   14.1327 H      2695        0    0.0000
  16177 C        1668.1824  236.2745   15.1895 C.3    2696        0    0.0000
  16178 C        1669.6146  236.4703   14.6798 C.3    2696        0    0.0000
  16179 H        1667.5941  237.1843   15.0171 H      2696        0    0.0000
  16180 H        1668.1887  236.1039   16.2731 H      2696        0    0.0000
  16181 H        1670.2770  235.7144   15.1196 H      2696        0    0.0000
  16182 H        1669.6503  236.3261   13.5928 H      2696        0    0.0000
  16183 C        1670.1766  237.8937   15.0195 C.3    2697        0    0.0000
  16184 C        1671.3822  238.2652   14.1487 C.3    2697        0    0.0000
  16185 H        1669.3755  238.6312   14.8868 H      2697        0    0.0000
  16186 H        1670.4564  237.9196   16.0798 H      2697        0    0.0000
  16187 H        1672.1254  237.4585   14.1712 H      2697        0    0.0000
  16188 H        1671.0703  238.3772   13.1029 H      2697        0    0.0000
  16189 C        1672.0660  239.5956   14.6174 C.3    2698        0    0.0000
  16190 C        1672.4637  240.4910   13.4388 C.3    2698        0    0.0000
  16191 H        1671.3774  240.1322   15.2817 H      2698        0    0.0000
  16192 H        1672.9512  239.3465   15.2158 H      2698        0    0.0000
  16193 H        1671.5934  240.6772   12.7974 H      2698        0    0.0000
  16194 H        1672.7996  241.4689   13.8058 H      2698        0    0.0000
  16195 C        1673.6052  239.8581   12.5704 C.3    2699        0    0.0000
  16196 C        1673.7996  240.5946   11.2405 C.3    2699        0    0.0000
  16197 H        1674.5380  239.8721   13.1479 H      2699        0    0.0000
  16198 H        1673.3652  238.8038   12.3850 H      2699        0    0.0000
  16199 H        1672.8263  240.8847   10.8254 H      2699        0    0.0000
  16200 H        1674.3618  241.5225   11.4030 H      2699        0    0.0000
  16201 C        1674.5599  239.7217   10.1835 C.3    2700        0    0.0000
  16202 C        1675.8567  240.3852    9.7070 C.3    2700        0    0.0000
  16203 H        1674.7791  238.7420   10.6259 H      2700        0    0.0000
  16204 H        1673.8945  239.5403    9.3303 H      2700        0    0.0000
  16205 H        1675.9764  241.3644   10.1867 H      2700        0    0.0000
  16206 H        1676.7212  239.7797   10.0064 H      2700        0    0.0000
  16207 C        1675.8889  240.5772    8.1515 C.3    2701        0    0.0000
  16208 C        1676.2522  242.0112    7.7506 C.3    2701        0    0.0000
  16209 H        1676.6122  239.8722    7.7231 H      2701        0    0.0000
  16210 H        1674.9071  240.3094    7.7418 H      2701        0    0.0000
  16211 H        1675.4298  242.6921    8.0032 H      2701        0    0.0000
  16212 H        1677.1276  242.3503    8.3184 H      2701        0    0.0000
  16213 C        1676.5624  242.1396    6.2193 C.3    2702        0    0.0000
  16214 C        1675.6628  243.1707    5.5289 C.3    2702        0    0.0000
  16215 H        1677.6166  242.4163    6.0941 H      2702        0    0.0000
  16216 H        1676.4370  241.1562    5.7495 H      2702        0    0.0000
  16217 H        1674.7573  242.6835    5.1460 H      2702        0    0.0000
  16218 H        1675.3323  243.9260    6.2526 H      2702        0    0.0000
  16219 C        1676.3889  243.8922    4.3416 C.3    2703        0    0.0000
  16220 C        1676.0990  243.2257    2.9923 C.3    2703        0    0.0000
  16221 H        1676.0715  244.9420    4.3186 H      2703        0    0.0000
  16222 H        1677.4688  243.8937    4.5360 H      2703        0    0.0000
  16223 H        1675.1702  243.6255    2.5670 H      2703        0    0.0000
  16224 H        1676.8984  243.4592    2.2780 H      2703        0    0.0000
  16225 C        1675.9697  241.6682    3.1144 C.3    2704        0    0.0000
  16226 C        1677.1094  240.9330    2.4005 C.3    2704        0    0.0000
  16227 H        1675.9546  241.3969    4.1773 H      2704        0    0.0000
  16228 H        1675.0033  241.3598    2.6968 H      2704        0    0.0000
  16229 H        1676.7140  240.0699    1.8507 H      2704        0    0.0000
  16230 H        1677.5758  241.5926    1.6583 H      2704        0    0.0000
  16231 C        1678.2118  240.4350    3.3977 C.3    2705        0    0.0000
  16232 C        1678.4677  238.9288    3.2759 C.3    2705        0    0.0000
  16233 H        1679.1383  240.9906    3.2068 H      2705        0    0.0000
  16234 H        1677.9011  240.6823    4.4205 H      2705        0    0.0000
  16235 H        1677.5314  238.3755    3.4196 H      2705        0    0.0000
  16236 H        1678.8241  238.6883    2.2667 H      2705        0    0.0000
  16237 C        1679.5211  238.4189    4.3188 C.3    2706        0    0.0000
  16238 C        1678.8643  237.7139    5.5108 C.3    2706        0    0.0000
  16239 H        1680.2162  237.7362    3.8145 H      2706        0    0.0000
  16240 H        1680.1154  239.2725    4.6675 H      2706        0    0.0000
  16241 H        1677.9615  238.2563    5.8176 H      2706        0    0.0000
  16242 H        1678.5428  236.7057    5.2211 H      2706        0    0.0000
  16243 C        1679.8295  237.6027    6.7409 C.3    2707        0    0.0000
  16244 C        1679.5898  238.7132    7.7697 C.3    2707        0    0.0000
  16245 H        1679.6934  236.6201    7.2095 H      2707        0    0.0000
  16246 H        1680.8656  237.6397    6.3820 H      2707        0    0.0000
  16247 H        1678.5441  239.0426    7.7308 H      2707        0    0.0000
  16248 H        1679.7620  238.3303    8.7834 H      2707        0    0.0000
  16249 C        1680.5194  239.9531    7.5332 C.3    2708        0    0.0000
  16250 C        1681.3083  240.3360    8.7902 C.3    2708        0    0.0000
  16251 H        1681.2091  239.7262    6.7109 H      2708        0    0.0000
  16252 H        1679.9034  240.7990    7.2036 H      2708        0    0.0000
  16253 H        1680.6196  240.5305    9.6218 H      2708        0    0.0000
  16254 H        1681.9492  239.5014    9.1008 H      2708        0    0.0000
  16255 C        1682.2025  241.6041    8.5673 C.3    2709        0    0.0000
  16256 C        1683.6835  241.2481    8.3973 C.3    2709        0    0.0000
  16257 H        1681.8405  242.1407    7.6815 H      2709        0    0.0000
  16258 H        1682.0740  242.2818    9.4204 H      2709        0    0.0000
  16259 H        1684.0659  240.7825    9.3141 H      2709        0    0.0000
  16260 H        1683.8030  240.5092    7.5952 H      2709        0    0.0000
  16261 C        1684.5616  242.5029    8.0634 C.3    2710        0    0.0000
  16262 C        1684.9008  242.5943    6.5715 C.3    2710        0    0.0000
  16263 H        1684.0255  243.4049    8.3833 H      2710        0    0.0000
  16264 H        1685.4834  242.4573    8.6566 H      2710        0    0.0000
  16265 H        1685.7607  243.2586    6.4213 H      2710        0    0.0000
  16266 H        1685.1945  241.6079    6.1914 H      2710        0    0.0000
  16267 C        1683.6967  243.1260    5.7200 C.3    2711        0    0.0000
  16268 C        1684.1405  244.1295    4.6499 C.3    2711        0    0.0000
  16269 H        1683.1923  242.2729    5.2496 H      2711        0    0.0000
  16270 H        1682.9663  243.5921    6.3929 H      2711        0    0.0000
  16271 H        1683.3978  244.9314    4.5550 H      2711        0    0.0000
  16272 H        1685.0824  244.6062    4.9486 H      2711        0    0.0000
  16273 C        1684.3375  243.4550    3.2485 C.3    2712        0    0.0000
  16274 C        1685.6687  242.7021    3.1483 C.3    2712        0    0.0000
  16275 H        1683.5021  242.7678    3.0662 H      2712        0    0.0000
  16276 H        1684.2838  244.2289    2.4728 H      2712        0    0.0000
  16277 H        1686.1362  242.8924    2.1742 H      2712        0    0.0000
  16278 H        1686.3672  243.0697    3.9102 H      2712        0    0.0000
  16279 C        1685.4915  241.1550    3.3300 C.3    2713        0    0.0000
  16280 C        1686.8282  240.4071    3.2776 C.3    2713        0    0.0000
  16281 H        1684.9922  240.9664    4.2884 H      2713        0    0.0000
  16282 H        1684.8206  240.7815    2.5464 H      2713        0    0.0000
  16283 H        1686.7672  239.5769    2.5630 H      2713        0    0.0000
  16284 H        1687.6195  241.0759    2.9167 H      2713        0    0.0000
  16285 C        1687.2465  239.8390    4.6776 C.3    2714        0    0.0000
  16286 C        1688.5605  240.4457    5.1817 C.3    2714        0    0.0000
  16287 H        1686.4407  240.0380    5.3949 H      2714        0    0.0000
  16288 H        1687.3398  238.7484    4.6031 H      2714        0    0.0000
  16289 H        1689.3842  240.1685    4.5120 H      2714        0    0.0000
  16290 H        1688.4988  241.5409    5.1684 H      2714        0    0.0000
  16291 C        1688.9121  239.9770    6.6357 C.3    2715        0    0.0000
  16292 C        1689.5607  241.0914    7.4644 C.3    2715        0    0.0000
  16293 H        1687.9949  239.6286    7.1264 H      2715        0    0.0000
  16294 H        1689.5852  239.1128    6.5756 H      2715        0    0.0000
  16295 H        1688.7892  241.7622    7.8618 H      2715        0    0.0000
  16296 H        1690.0813  240.6622    8.3296 H      2715        0    0.0000
  16297 C        1690.5826  241.9359    6.6277 C.3    2716        0    0.0000
  16298 C        1690.6926  243.3794    7.1309 C.3    2716        0    0.0000
  16299 H        1691.5637  241.4470    6.6701 H      2716        0    0.0000
  16300 H        1690.2714  241.9268    5.5758 H      2716        0    0.0000
  16301 H        1689.6929  243.7883    7.3224 H      2716        0    0.0000
  16302 H        1691.2317  243.4048    8.0861 H      2716        0    0.0000
  16303 C        1691.4319  244.3102    6.1087 C.3    2717        0    0.0000
  16304 C        1690.7539  245.6780    5.9729 C.3    2717        0    0.0000
  16305 H        1692.4720  244.4365    6.4338 H      2717        0    0.0000
  16306 H        1691.4653  243.8084    5.1337 H      2717        0    0.0000
  16307 H        1690.8597  246.0500    4.9463 H      2717        0    0.0000
  16308 H        1689.6777  245.5851    6.1649 H      2717        0    0.0000
  16309 C        1691.3535  246.7388    6.9592 C.3    2718        0    0.0000
  16310 C        1690.3148  247.2512    7.9629 C.3    2718        0    0.0000
  16311 H        1692.2002  246.2878    7.4913 H      2718        0    0.0000
  16312 H        1691.7576  247.5753    6.3758 H      2718        0    0.0000
  16313 H        1689.9012  246.4131    8.5374 H      2718        0    0.0000
  16314 H        1690.7911  247.9244    8.6865 H      2718        0    0.0000
  16315 C        1689.1375  248.0134    7.2625 C.3    2719        0    0.0000
  16316 C        1687.8151  247.8640    8.0228 C.3    2719        0    0.0000
  16317 H        1689.4043  249.0739    7.1767 H      2719        0    0.0000
  16318 H        1689.0283  247.6321    6.2396 H      2719        0    0.0000
  16319 H        1687.6632  246.8165    8.3113 H      2719        0    0.0000
  16320 H        1687.8480  248.4453    8.9526 H      2719        0    0.0000
  16321 C        1686.5851  248.3377    7.1741 C.3    2720        0    0.0000
  16322 C        1685.3276  247.5101    7.4616 C.3    2720        0    0.0000
  16323 H        1686.3951  249.3969    7.3874 H      2720        0    0.0000
  16324 H        1686.8435  248.2721    6.1099 H      2720        0    0.0000
  16325 H        1684.7625  247.3505    6.5350 H      2720        0    0.0000
  16326 H        1685.6079  246.5172    7.8347 H      2720        0    0.0000
  16327 C        1684.3905  248.1990    8.5129 C.3    2721        0    0.0000
  16328 C        1684.1378  247.3106    9.7359 C.3    2721        0    0.0000
  16329 H        1684.8453  249.1474    8.8243 H      2721        0    0.0000
  16330 H        1683.4392  248.4502    8.0275 H      2721        0    0.0000
  16331 H        1683.6638  246.3707    9.4268 H      2721        0    0.0000
  16332 H        1685.0906  247.0421   10.2091 H      2721        0    0.0000
  16333 C        1683.2246  248.0108   10.8005 C.3    2722        0    0.0000
  16334 C        1683.3394  247.3591   12.1830 C.3    2722        0    0.0000
  16335 H        1683.5004  249.0711   10.8605 H      2722        0    0.0000
  16336 H        1682.1847  247.9750   10.4529 H      2722        0    0.0000
  16337 H        1684.0549  247.9143   12.8022 H      2722        0    0.0000
  16338 H        1682.3734  247.4035   12.7012 H      2722        0    0.0000
  16339 C        1683.7988  245.8628   12.0982 C.3    2723        0    0.0000
  16340 C        1684.8522  245.5177   13.1565 C.3    2723        0    0.0000
  16341 H        1682.9207  245.2160   12.2166 H      2723        0    0.0000
  16342 H        1684.1976  245.6717   11.0942 H      2723        0    0.0000
  16343 H        1685.8087  245.9912   12.9035 H      2723        0    0.0000
  16344 H        1684.5505  245.9185   14.1322 H      2723        0    0.0000
  16345 C        1685.0739  243.9717   13.2921 C.3    2724        0    0.0000
  16346 C        1686.3844  243.5136   12.6428 C.3    2724        0    0.0000
  16347 H        1685.0682  243.7057   14.3565 H      2724        0    0.0000
  16348 H        1684.2244  243.4510   12.8329 H      2724        0    0.0000
  16349 H        1686.5166  244.0087   11.6726 H      2724        0    0.0000
  16350 H        1687.2369  243.8100   13.2663 H      2724        0    0.0000
  16351 C        1686.4305  241.9614   12.4283 C.3    2725        0    0.0000
  16352 C        1687.7848  241.4897   11.8874 C.3    2725        0    0.0000
  16353 H        1686.2135  241.4660   13.3828 H      2725        0    0.0000
  16354 H        1685.6289  241.6762   11.7358 H      2725        0    0.0000
  16355 H        1687.8953  241.7885   10.8376 H      2725        0    0.0000
  16356 H        1688.5997  241.9734   12.4401 H      2725        0    0.0000
  16357 C        1687.9572  239.9350   11.9911 C.3    2726        0    0.0000
  16358 C        1687.9590  239.2579   10.6160 C.3    2726        0    0.0000
  16359 H        1688.8940  239.7174   12.5188 H      2726        0    0.0000
  16360 H        1687.1461  239.5298   12.6088 H      2726        0    0.0000
  16361 H        1686.9287  239.0866   10.2796 H      2726        0    0.0000
  16362 H        1688.4275  239.9156    9.8735 H      2726        0    0.0000
  16363 C        1688.7207  237.8878   10.6295 C.3    2727        0    0.0000
  16364 C        1690.1622  238.0197   10.1260 C.3    2727        0    0.0000
  16365 H        1688.7141  237.4896   11.6515 H      2727        0    0.0000
  16366 H        1688.1693  237.1708   10.0085 H      2727        0    0.0000
  16367 H        1690.7648  237.1760   10.4850 H      2727        0    0.0000
  16368 H        1690.1831  237.9777    9.0301 H      2727        0    0.0000
  16369 C        1690.8351  239.3561   10.5936 C.3    2728        0    0.0000
  16370 C        1692.3540  239.3447   10.3883 C.3    2728        0    0.0000
  16371 H        1690.3870  240.1903   10.0398 H      2728        0    0.0000
  16372 H        1690.6000  239.5186   11.6528 H      2728        0    0.0000
  16373 H        1692.8440  238.8468   11.2344 H      2728        0    0.0000
  16374 H        1692.6079  238.7656    9.4919 H      2728        0    0.0000
  16375 C        1692.9445  240.7893   10.2411 C.3    2729        0    0.0000
  16376 C        1694.0321  240.8654    9.1640 C.3    2729        0    0.0000
  16377 H        1692.1284  241.4820   10.0012 H      2729        0    0.0000
  16378 H        1693.3514  241.1054   11.2097 H      2729        0    0.0000
  16379 H        1694.9172  240.3008    9.4827 H      2729        0    0.0000
  16380 H        1693.6772  240.3978    8.2372 H      2729        0    0.0000
  16381 C        1694.4592  242.3414    8.8539 C.3    2730        0    0.0000
  16382 C        1695.6738  242.4112    7.9220 C.3    2730        0    0.0000
  16383 H        1693.6089  242.8684    8.4038 H      2730        0    0.0000
  16384 H        1694.6810  242.8513    9.7996 H      2730        0    0.0000
  16385 H        1696.5177  241.8656    8.3622 H      2730        0    0.0000
  16386 H        1695.4446  241.9203    6.9679 H      2730        0    0.0000
  16387 C        1696.1199  243.8867    7.6364 C.3    2731        0    0.0000
  16388 C        1697.1975  243.9677    6.5496 C.3    2731        0    0.0000
  16389 H        1695.2404  244.4706    7.3383 H      2731        0    0.0000
  16390 H        1696.4916  244.3303    8.5684 H      2731        0    0.0000
  16391 H        1698.1927  243.8549    6.9974 H      2731        0    0.0000
  16392 H        1697.0770  243.1414    5.8380 H      2731        0    0.0000
  16393 C        1697.1478  245.3230    5.7634 C.3    2732        0    0.0000
  16394 C        1698.4432  245.5942    4.9907 C.3    2732        0    0.0000
  16395 H        1696.2955  245.3003    5.0730 H      2732        0    0.0000
  16396 H        1696.9561  246.1369    6.4736 H      2732        0    0.0000
  16397 H        1698.8497  244.6547    4.5961 H      2732        0    0.0000
  16398 H        1698.2375  246.2364    4.1253 H      2732        0    0.0000
  16399 C        1699.5341  246.2817    5.8823 C.3    2733        0    0.0000
  16400 C        1700.9092  245.6225    5.7297 C.3    2733        0    0.0000
  16401 H        1699.5939  247.3434    5.6122 H      2733        0    0.0000
  16402 H        1699.2114  246.2408    6.9301 H      2733        0    0.0000
  16403 H        1700.9590  244.7110    6.3384 H      2733        0    0.0000
  16404 H        1701.0653  245.3147    4.6883 H      2733        0    0.0000
  16405 C        1702.0768  246.5781    6.1548 C.3    2734        0    0.0000
  16406 C        1703.4504  245.9110    6.0240 C.3    2734        0    0.0000
  16407 H        1702.0372  247.4823    5.5347 H      2734        0    0.0000
  16408 H        1701.9117  246.8992    7.1908 H      2734        0    0.0000
  16409 H        1703.3628  244.9784    5.4529 H      2734        0    0.0000
  16410 H        1704.1324  246.5613    5.4623 H      2734        0    0.0000
  16411 C        1704.0909  245.5913    7.4187 C.3    2735        0    0.0000
  16412 C        1705.3950  244.7962    7.2905 C.3    2735        0    0.0000
  16413 H        1704.2760  246.5345    7.9473 H      2735        0    0.0000
  16414 H        1703.3656  245.0298    8.0205 H      2735        0    0.0000
  16415 H        1705.8103  244.9150    6.2821 H      2735        0    0.0000
  16416 H        1706.1450  245.1886    7.9883 H      2735        0    0.0000
  16417 C        1705.1898  243.2685    7.5756 C.3    2736        0    0.0000
  16418 C        1705.8508  242.3851    6.5117 C.3    2736        0    0.0000
  16419 H        1705.6000  243.0354    8.5660 H      2736        0    0.0000
  16420 H        1704.1140  243.0590    7.6231 H      2736        0    0.0000
  16421 H        1706.7290  242.8927    6.0941 H      2736        0    0.0000
  16422 H        1706.2113  241.4543    6.9667 H      2736        0    0.0000
  16423 C        1704.8696  242.0287    5.3422 C.3    2737        0    0.0000
  16424 C        1705.3416  242.5902    3.9965 C.3    2737        0    0.0000
  16425 H        1704.7732  240.9376    5.2815 H      2737        0    0.0000
  16426 H        1703.8738  242.4200    5.5845 H      2737        0    0.0000
  16427 H        1706.3861  242.3071    3.8161 H      2737        0    0.0000
  16428 H        1704.7520  242.1552    3.1797 H      2737        0    0.0000
  16429 C        1705.2224  244.1519    3.9294 C.3    2738        0    0.0000
  16430 C        1705.7124  244.7149    2.5908 C.3    2738        0    0.0000
  16431 H        1704.1753  244.4341    4.0955 H      2738        0    0.0000
  16432 H        1705.8004  244.5863    4.7544 H      2738        0    0.0000
  16433 H        1706.3696  243.9893    2.0955 H      2738        0    0.0000
  16434 H        1704.8617  244.8800    1.9181 H      2738        0    0.0000
  16435 C        1706.4899  246.0653    2.7631 C.3    2739        0    0.0000
  16436 C        1705.6011  247.2852    2.4965 C.3    2739        0    0.0000
  16437 H        1706.8966  246.1117    3.7808 H      2739        0    0.0000
  16438 H        1707.3483  246.0689    2.0801 H      2739        0    0.0000
  16439 H        1705.7927  247.6776    1.4901 H      2739        0    0.0000
  16440 H        1704.5439  246.9937    2.5248 H      2739        0    0.0000
  16441 C        1705.8372  248.4316    3.5393 C.3    2740        0    0.0000
  16442 C        1704.6237  249.3590    3.6679 C.3    2740        0    0.0000
  16443 H        1706.0718  247.9820    4.5120 H      2740        0    0.0000
  16444 H        1706.7206  249.0078    3.2373 H      2740        0    0.0000
  16445 H        1704.7637  250.2505    3.0441 H      2740        0    0.0000
  16446 H        1703.7231  248.8537    3.2973 H      2740        0    0.0000
  16447 C        1704.3762  249.8117    5.1482 C.3    2741        0    0.0000
  16448 C        1703.2183  250.8090    5.2647 C.3    2741        0    0.0000
  16449 H        1704.1714  248.9243    5.7598 H      2741        0    0.0000
  16450 H        1705.2983  250.2585    5.5402 H      2741        0    0.0000
  16451 H        1703.6007  251.8362    5.2210 H      2741        0    0.0000
  16452 H        1702.5336  250.6913    4.4155 H      2741        0    0.0000
  16453 C        1702.4091  250.6272    6.5950 C.3    2742        0    0.0000
  16454 C        1703.2429  250.9719    7.8339 C.3    2742        0    0.0000
  16455 H        1701.5153  251.2619    6.5547 H      2742        0    0.0000
  16456 H        1702.0566  249.5901    6.6555 H      2742        0    0.0000
  16457 H        1703.5132  252.0350    7.8214 H      2742        0    0.0000
  16458 H        1702.6512  250.8079    8.7431 H      2742        0    0.0000
  16459 C        1704.5544  250.1180    7.9237 C.3    2743        0    0.0000
  16460 C        1705.0789  250.0082    9.3597 C.3    2743        0    0.0000
  16461 H        1704.3540  249.1182    7.5190 H      2743        0    0.0000
  16462 H        1705.3169  250.5720    7.2786 H      2743        0    0.0000
  16463 H        1705.1283  251.0032    9.8193 H      2743        0    0.0000
  16464 H        1704.3864  249.4140    9.9687 H      2743        0    0.0000
  16465 C        1706.5005  249.3506    9.4245 C.3    2744        0    0.0000
  16466 C        1706.5470  248.1613   10.3902 C.3    2744        0    0.0000
  16467 H        1706.7869  249.0276    8.4160 H      2744        0    0.0000
  16468 H        1707.2288  250.1120    9.7301 H      2744        0    0.0000
  16469 H        1706.2850  248.4894   11.4038 H      2744        0    0.0000
  16470 H        1705.8010  247.4113   10.0993 H      2744        0    0.0000
  16471 C        1707.9590  247.4815   10.4280 C.3    2745        0    0.0000
  16472 C        1707.8940  246.0351   10.9309 C.3    2745        0    0.0000
  16473 H        1708.3926  247.5103    9.4207 H      2745        0    0.0000
  16474 H        1708.6198  248.0744   11.0725 H      2745        0    0.0000
  16475 H        1707.8364  246.0199   12.0263 H      2745        0    0.0000
  16476 H        1706.9830  245.5487   10.5607 H      2745        0    0.0000
  16477 C        1709.1360  245.1925   10.4785 C.3    2746        0    0.0000
  16478 C        1708.9082  244.4998    9.1304 C.3    2746        0    0.0000
  16479 H        1710.0092  245.8539   10.4187 H      2746        0    0.0000
  16480 H        1709.3580  244.4467   11.2518 H      2746        0    0.0000
  16481 H        1707.9453  243.9739    9.1357 H      2746        0    0.0000
  16482 H        1708.8550  245.2462    8.3282 H      2746        0    0.0000
  16483 C        1710.0428  243.4728    8.7908 C.3    2747        0    0.0000
  16484 C        1710.9531  243.9656    7.6604 C.3    2747        0    0.0000
  16485 H        1710.6343  243.2870    9.6959 H      2747        0    0.0000
  16486 H        1709.5826  242.5164    8.5134 H      2747        0    0.0000
  16487 H        1711.8579  243.3473    7.6096 H      2747        0    0.0000
  16488 H        1710.4442  243.8594    6.6943 H      2747        0    0.0000
  16489 C        1711.3748  245.4638    7.8475 C.3    2748        0    0.0000
  16490 C        1712.2909  245.9544    6.7210 C.3    2748        0    0.0000
  16491 H        1710.4701  246.0827    7.8930 H      2748        0    0.0000
  16492 H        1711.8788  245.5711    8.8160 H      2748        0    0.0000
  16493 H        1712.9038  245.1251    6.3465 H      2748        0    0.0000
  16494 H        1711.6897  246.3091    5.8747 H      2748        0    0.0000
  16495 C        1713.2389  247.1123    7.1880 C.3    2749        0    0.0000
  16496 C        1713.2214  248.3024    6.2225 C.3    2749        0    0.0000
  16497 H        1712.9336  247.4368    8.1905 H      2749        0    0.0000
  16498 H        1714.2587  246.7185    7.2813 H      2749        0    0.0000
  16499 H        1713.8706  249.1023    6.5996 H      2749        0    0.0000
  16500 H        1713.6256  248.0020    5.2477 H      2749        0    0.0000
  16501 C        1711.7782  248.8782    6.0152 C.3    2750        0    0.0000
  16502 C        1711.7930  250.3706    5.6661 C.3    2750        0    0.0000
  16503 H        1711.2820  248.3104    5.2185 H      2750        0    0.0000
  16504 H        1711.1963  248.7117    6.9301 H      2750        0    0.0000
  16505 H        1711.0018  250.8937    6.2174 H      2750        0    0.0000
  16506 H        1712.7439  250.8203    5.9771 H      2750        0    0.0000
  16507 C        1711.5920  250.6238    4.1321 C.3    2751        0    0.0000
  16508 C        1712.8947  250.4602    3.3411 C.3    2751        0    0.0000
  16509 H        1710.8330  249.9271    3.7552 H      2751        0    0.0000
  16510 H        1711.1902  251.6346    3.9902 H      2751        0    0.0000
  16511 H        1713.3080  251.4447    3.0893 H      2751        0    0.0000
  16512 H        1713.6466  249.9505    3.9558 H      2751        0    0.0000
  16513 C        1712.6876  249.6458    2.0177 C.3    2752        0    0.0000
  16514 C        1712.8760  248.1393    2.2272 C.3    2752        0    0.0000
  16515 H        1711.6810  249.8489    1.6313 H      2752        0    0.0000
  16516 H        1713.3947  250.0120    1.2629 H      2752        0    0.0000
  16517 H        1713.9290  247.8680    2.0814 H      2752        0    0.0000
  16518 H        1712.6210  247.8682    3.2591 H      2752        0    0.0000
  16519 C        1711.9950  247.2885    1.2486 C.3    2753        0    0.0000
  16520 C        1711.5667  245.9523    1.8654 C.3    2753        0    0.0000
  16521 H        1711.1107  247.8744    0.9690 H      2753        0    0.0000
  16522 H        1712.5610  247.1125    0.3256 H      2753        0    0.0000
  16523 H        1711.3556  246.0820    2.9342 H      2753        0    0.0000
  16524 H        1710.6359  245.6046    1.4004 H      2753        0    0.0000
  16525 C        1712.6610  244.8426    1.6974 C.3    2754        0    0.0000
  16526 C        1712.6865  243.8682    2.8802 C.3    2754        0    0.0000
  16527 H        1712.4711  244.2970    0.7648 H      2754        0    0.0000
  16528 H        1713.6399  245.3251    1.5862 H      2754        0    0.0000
  16529 H        1712.2091  244.3265    3.7552 H      2754        0    0.0000
  16530 H        1712.1062  242.9689    2.6394 H      2754        0    0.0000
  16531 C        1714.1445  243.4404    3.2661 C.3    2755        0    0.0000
  16532 C        1714.1805  242.5774    4.5323 C.3    2755        0    0.0000
  16533 H        1714.5867  242.8927    2.4248 H      2755        0    0.0000
  16534 H        1714.7518  244.3429    3.4087 H      2755        0    0.0000
  16535 H        1713.2428  242.6889    5.0904 H      2755        0    0.0000
  16536 H        1714.2628  241.5173    4.2627 H      2755        0    0.0000
  16537 C        1715.3763  242.9535    5.4736 C.3    2756        0    0.0000
  16538 C        1715.1096  242.5694    6.9332 C.3    2756        0    0.0000
  16539 H        1716.2823  242.4516    5.1122 H      2756        0    0.0000
  16540 H        1715.5615  244.0320    5.3963 H      2756        0    0.0000
  16541 H        1714.0354  242.6301    7.1479 H      2756        0    0.0000
  16542 H        1715.4075  241.5284    7.1088 H      2756        0    0.0000
  16543 C        1715.8792  243.4919    7.9405 C.3    2757        0    0.0000
  16544 C        1717.3936  243.4734    7.7044 C.3    2757        0    0.0000
  16545 H        1715.4962  244.5155    7.8458 H      2757        0    0.0000
  16546 H        1715.6538  243.1644    8.9629 H      2757        0    0.0000
  16547 H        1717.9208  243.3271    8.6552 H      2757        0    0.0000
  16548 H        1717.6636  242.6269    7.0609 H      2757        0    0.0000
  16549 C        1717.9073  244.7971    7.0401 C.3    2758        0    0.0000
  16550 C        1719.3043  245.1901    7.5332 C.3    2758        0    0.0000
  16551 H        1717.9159  244.6660    5.9510 H      2758        0    0.0000
  16552 H        1717.1926  245.6011    7.2551 H      2758        0    0.0000
  16553 H        1719.3018  245.2958    8.6251 H      2758        0    0.0000
  16554 H        1720.0242  244.3972    7.2951 H      2758        0    0.0000
  16555 C        1719.8029  246.5331    6.8967 C.3    2759        0    0.0000
  16556 C        1719.7333  247.7044    7.8827 C.3    2759        0    0.0000
  16557 H        1720.8335  246.3972    6.5462 H      2759        0    0.0000
  16558 H        1719.1948  246.7512    6.0100 H      2759        0    0.0000
  16559 H        1719.0323  247.4718    8.6941 H      2759        0    0.0000
  16560 H        1720.7136  247.8624    8.3489 H      2759        0    0.0000
  16561 C        1719.2816  249.0369    7.1914 C.3    2760        0    0.0000
  16562 C        1717.8300  249.4002    7.5230 C.3    2760        0    0.0000
  16563 H        1719.9531  249.8447    7.5078 H      2760        0    0.0000
  16564 H        1719.4045  248.9317    6.1064 H      2760        0    0.0000
  16565 H        1717.1536  248.9658    6.7765 H      2760        0    0.0000
  16566 H        1717.5469  248.9712    8.4923 H      2760        0    0.0000
  16567 C        1717.6014  250.9504    7.5707 C.3    2761        0    0.0000
  16568 C        1717.3568  251.5444    6.1792 C.3    2761        0    0.0000
  16569 H        1716.7472  251.1619    8.2256 H      2761        0    0.0000
  16570 H        1718.4772  251.4229    8.0328 H      2761        0    0.0000
  16571 H        1716.2843  251.7173    6.0272 H      2761        0    0.0000
  16572 H        1717.8485  252.5216    6.0957 H      2761        0    0.0000
  16573 C        1717.8857  250.6134    5.0342 C.3    2762        0    0.0000
  16574 C        1717.4781  251.1134    3.6440 C.3    2762        0    0.0000
  16575 H        1718.9786  250.5506    5.1060 H      2762        0    0.0000
  16576 H        1717.5006  249.5991    5.1970 H      2762        0    0.0000
  16577 H        1716.3855  251.1812    3.5740 H      2762        0    0.0000
  16578 H        1717.8678  252.1257    3.4791 H      2762        0    0.0000
  16579 C        1718.0009  250.1784    2.4993 C.3    2763        0    0.0000
  16580 C        1716.9840  249.0946    2.1247 C.3    2763        0    0.0000
  16581 H        1718.2371  250.7923    1.6215 H      2763        0    0.0000
  16582 H        1718.9417  249.7158    2.8227 H      2763        0    0.0000
  16583 H        1716.3296  248.8812    2.9789 H      2763        0    0.0000
  16584 H        1716.3369  249.4503    1.3133 H      2763        0    0.0000
  16585 C        1717.6752  247.7622    1.6726 C.3    2764        0    0.0000
  16586 C        1717.5100  246.6424    2.7060 C.3    2764        0    0.0000
  16587 H        1717.2495  247.4518    0.7103 H      2764        0    0.0000
  16588 H        1718.7402  247.9582    1.4973 H      2764        0    0.0000
  16589 H        1716.7329  246.9122    3.4319 H      2764        0    0.0000
  16590 H        1717.1743  245.7218    2.2127 H      2764        0    0.0000
  16591 C        1718.8416  246.3454    3.4781 C.3    2765        0    0.0000
  16592 C        1719.5085  245.0479    3.0080 C.3    2765        0    0.0000
  16593 H        1719.5264  247.1914    3.3406 H      2765        0    0.0000
  16594 H        1718.6228  246.2884    4.5515 H      2765        0    0.0000
  16595 H        1718.8912  244.1851    3.2874 H      2765        0    0.0000
  16596 H        1719.5850  245.0394    1.9137 H      2765        0    0.0000
  16597 C        1720.9413  244.8622    3.6163 C.3    2766        0    0.0000
  16598 C        1721.4187  243.4075    3.5442 C.3    2766        0    0.0000
  16599 H        1721.6409  245.5148    3.0792 H      2766        0    0.0000
  16600 H        1720.9296  245.2030    4.6589 H      2766        0    0.0000
  16601 H        1720.9203  242.8093    4.3168 H      2766        0    0.0000
  16602 H        1721.1418  242.9682    2.5778 H      2766        0    0.0000
  16603 C        1722.9702  243.2816    3.7304 C.3    2767        0    0.0000
  16604 C        1723.3710  243.1670    5.2053 C.3    2767        0    0.0000
  16605 H        1723.3229  242.4034    3.1755 H      2767        0    0.0000
  16606 H        1723.4530  244.1559    3.2763 H      2767        0    0.0000
  16607 H        1722.5212  242.8080    5.7991 H      2767        0    0.0000
  16608 H        1724.1716  242.4259    5.3210 H      2767        0    0.0000
  16609 C        1723.8589  244.5344    5.7965 C.3    2768        0    0.0000
  16610 C        1725.3831  244.5909    5.9480 C.3    2768        0    0.0000
  16611 H        1723.5156  245.3452    5.1422 H      2768        0    0.0000
  16612 H        1723.3781  244.6904    6.7702 H      2768        0    0.0000
  16613 H        1725.6709  244.2999    6.9659 H      2768        0    0.0000
  16614 H        1725.8556  243.8705    5.2689 H      2768        0    0.0000
  16615 C        1725.9573  246.0186    5.6492 C.3    2769        0    0.0000
  16616 C        1726.2457  246.8086    6.9303 C.3    2769        0    0.0000
  16617 H        1726.8749  245.9137    5.0571 H      2769        0    0.0000
  16618 H        1725.2396  246.5645    5.0240 H      2769        0    0.0000
  16619 H        1725.3250  247.2777    7.2984 H      2769        0    0.0000
  16620 H        1726.5914  246.1306    7.7205 H      2769        0    0.0000
  16621 C        1727.3273  247.9220    6.7110 C.3    2770        0    0.0000
  16622 C        1726.7113  249.3236    6.6366 C.3    2770        0    0.0000
  16623 H        1728.0553  247.8740    7.5303 H      2770        0    0.0000
  16624 H        1727.8776  247.7033    5.7875 H      2770        0    0.0000
  16625 H        1726.4785  249.6860    7.6455 H      2770        0    0.0000
  16626 H        1727.4329  250.0291    6.2067 H      2770        0    0.0000
  16627 C        1725.4020  249.3519    5.7749 C.3    2771        0    0.0000
  16628 C        1725.5736  250.1600    4.4839 C.3    2771        0    0.0000
  16629 H        1725.1124  248.3208    5.5375 H      2771        0    0.0000
  16630 H        1724.5902  249.7760    6.3790 H      2771        0    0.0000
  16631 H        1724.5917  250.4216    4.0704 H      2771        0    0.0000
  16632 H        1726.0874  251.1055    4.6975 H      2771        0    0.0000
  16633 C        1726.3876  249.3770    3.3967 C.3    2772        0    0.0000
  16634 C        1725.5942  249.1919    2.0984 C.3    2772        0    0.0000
  16635 H        1727.3195  249.9191    3.1940 H      2772        0    0.0000
  16636 H        1726.6738  248.3998    3.8050 H      2772        0    0.0000
  16637 H        1724.5455  248.9647    2.3275 H      2772        0    0.0000
  16638 H        1725.5956  250.1246    1.5207 H      2772        0    0.0000
  16639 C        1726.1765  248.0433    1.2048 C.3    2773        0    0.0000
  16640 C        1725.1979  246.8737    1.0520 C.3    2773        0    0.0000
  16641 H        1726.4277  248.4547    0.2193 H      2773        0    0.0000
  16642 H        1727.1163  247.6919    1.6485 H      2773        0    0.0000
  16643 H        1725.0928  246.3439    2.0070 H      2773        0    0.0000
  16644 H        1724.2013  247.2489    0.7886 H      2773        0    0.0000
  16645 C        1725.6593  245.8523   -0.0441 C.3    2774        0    0.0000
  16646 C        1725.9070  244.4538    0.5323 C.3    2774        0    0.0000
  16647 H        1724.8938  245.8056   -0.8286 H      2774        0    0.0000
  16648 H        1726.5732  246.2312   -0.5182 H      2774        0    0.0000
  16649 H        1724.9551  243.9942    0.8260 H      2774        0    0.0000
  16650 H        1726.3478  243.8039   -0.2336 H      2774        0    0.0000
  16651 C        1726.8586  244.4846    1.7777 C.3    2775        0    0.0000
  16652 C        1728.2065  243.8119    1.4955 C.3    2775        0    0.0000
  16653 H        1727.0146  245.5283    2.0778 H      2775        0    0.0000
  16654 H        1726.3583  243.9867    2.6174 H      2775        0    0.0000
  16655 H        1728.1351  242.7333    1.6830 H      2775        0    0.0000
  16656 H        1728.4720  243.9309    0.4376 H      2775        0    0.0000
  16657 C        1729.3612  244.4026    2.3759 C.3    2776        0    0.0000
  16658 C        1729.5713  243.6068    3.6688 C.3    2776        0    0.0000
  16659 H        1730.2860  244.4124    1.7859 H      2776        0    0.0000
  16660 H        1729.1266  245.4481    2.6116 H      2776        0    0.0000
  16661 H        1728.6774  243.6743    4.3013 H      2776        0    0.0000
  16662 H        1729.7139  242.5439    3.4373 H      2776        0    0.0000
  16663 C        1730.8082  244.1164    4.4859 C.3    2777        0    0.0000
  16664 C        1730.4178  244.6096    5.8836 C.3    2777        0    0.0000
  16665 H        1731.5396  243.3025    4.5649 H      2777        0    0.0000
  16666 H        1731.2946  244.9237    3.9245 H      2777        0    0.0000
  16667 H        1729.5233  245.2419    5.8232 H      2777        0    0.0000
  16668 H        1730.1587  243.7576    6.5243 H      2777        0    0.0000
  16669 C        1731.5681  245.4252    6.5686 C.3    2778        0    0.0000
  16670 C        1731.4590  246.9286    6.2912 C.3    2778        0    0.0000
  16671 H        1731.5386  245.2390    7.6493 H      2778        0    0.0000
  16672 H        1732.5330  245.0456    6.2098 H      2778        0    0.0000
  16673 H        1731.0312  247.0973    5.2951 H      2778        0    0.0000
  16674 H        1730.7748  247.3951    7.0109 H      2778        0    0.0000
  16675 C        1732.8480  247.6505    6.3736 C.3    2779        0    0.0000
  16676 C        1732.8318  249.0214    5.6884 C.3    2779        0    0.0000
  16677 H        1733.1272  247.7607    7.4288 H      2779        0    0.0000
  16678 H        1733.6083  247.0082    5.9120 H      2779        0    0.0000
  16679 H        1732.2814  248.9620    4.7413 H      2779        0    0.0000
  16680 H        1732.3019  249.7491    6.3155 H      2779        0    0.0000
  16681 C        1734.2759  249.5590    5.4009 C.3    2780        0    0.0000
  16682 C        1734.5110  250.9463    6.0086 C.3    2780        0    0.0000
  16683 H        1735.0055  248.8443    5.8014 H      2780        0    0.0000
  16684 H        1734.4312  249.5926    4.3153 H      2780        0    0.0000
  16685 H        1735.5525  251.2537    5.8523 H      2780        0    0.0000
  16686 H        1733.8835  251.6900    5.5021 H      2780        0    0.0000
  16687 C        1734.1982  250.9830    7.5441 C.3    2781        0    0.0000
  16688 C        1735.4609  250.8237    8.3981 C.3    2781        0    0.0000
  16689 H        1733.7010  251.9317    7.7812 H      2781        0    0.0000
  16690 H        1733.4825  250.1852    7.7785 H      2781        0    0.0000
  16691 H        1736.3212  251.2709    7.8847 H      2781        0    0.0000
  16692 H        1735.3445  251.3633    9.3461 H      2781        0    0.0000
  16693 C        1735.7830  249.3212    8.7082 C.3    2782        0    0.0000
  16694 C        1737.2874  249.0678    8.8550 C.3    2782        0    0.0000
  16695 H        1735.2610  249.0303    9.6282 H      2782        0    0.0000
  16696 H        1735.3733  248.6983    7.9033 H      2782        0    0.0000
  16697 H        1737.7651  249.9191    9.3553 H      2782        0    0.0000
  16698 H        1737.4608  248.1908    9.4910 H      2782        0    0.0000
  16699 C        1737.9885  248.8358    7.4723 C.3    2783        0    0.0000
  16700 C        1739.3577  249.5201    7.3932 C.3    2783        0    0.0000
  16701 H        1738.0973  247.7566    7.3076 H      2783        0    0.0000
  16702 H        1737.3336  249.2114    6.6763 H      2783        0    0.0000
  16703 H        1739.2705  250.5715    7.6941 H      2783        0    0.0000
  16704 H        1740.0553  249.0481    8.0960 H      2783        0    0.0000
  16705 C        1739.9716  249.4563    5.9522 C.3    2784        0    0.0000
  16706 C        1741.3427  250.1363    5.8742 C.3    2784        0    0.0000
  16707 H        1740.0553  248.4051    5.6499 H      2784        0    0.0000
  16708 H        1739.2755  249.9315    5.2499 H      2784        0    0.0000
  16709 H        1741.2336  251.2195    6.0096 H      2784        0    0.0000
  16710 H        1741.9861  249.7803    6.6884 H      2784        0    0.0000
  16711 C        1742.0623  249.8679    4.5076 C.3    2785        0    0.0000
  16712 C        1742.2040  251.1409    3.6660 C.3    2785        0    0.0000
  16713 H        1743.0511  249.4370    4.7073 H      2785        0    0.0000
  16714 H        1741.4951  249.1109    3.9520 H      2785        0    0.0000
  16715 H        1742.7957  251.8876    4.2100 H      2785        0    0.0000
  16716 H        1742.7495  250.9209    2.7397 H      2785        0    0.0000
  16717 C        1740.8149  251.7674    3.2976 C.3    2786        0    0.0000
  16718 C        1740.8252  253.2974    3.3892 C.3    2786        0    0.0000
  16719 H        1740.5435  251.4531    2.2823 H      2786        0    0.0000
  16720 H        1740.0518  251.3554    3.9696 H      2786        0    0.0000
  16721 H        1741.7080  253.6349    3.9459 H      2786        0    0.0000
  16722 H        1740.8995  253.7337    2.3855 H      2786        0    0.0000
  16723 C        1739.5405  253.8591    4.0903 C.3    2787        0    0.0000
  16724 C        1739.8773  254.7868    5.2629 C.3    2787        0    0.0000
  16725 H        1738.9381  254.3958    3.3471 H      2787        0    0.0000
  16726 H        1738.9314  253.0163    4.4404 H      2787        0    0.0000
  16727 H        1740.2875  254.2047    6.0974 H      2787        0    0.0000
  16728 H        1740.6542  255.5019    4.9656 H      2787        0    0.0000
  16729 C        1738.6252  255.5827    5.7694 C.3    2788        0    0.0000
  16730 C        1738.3004  255.2820    7.2368 C.3    2788        0    0.0000
  16731 H        1738.8113  256.6558    5.6377 H      2788        0    0.0000
  16732 H        1737.7662  255.3316    5.1349 H      2788        0    0.0000
  16733 H        1737.4698  255.9137    7.5752 H      2788        0    0.0000
  16734 H        1737.9686  254.2417    7.3431 H      2788        0    0.0000
  16735 C        1739.5312  255.5186    8.1783 C.3    2789        0    0.0000
  16736 C        1739.6971  254.3976    9.2102 C.3    2789        0    0.0000
  16737 H        1740.4362  255.6009    7.5635 H      2789        0    0.0000
  16738 H        1739.4073  256.4827    8.6870 H      2789        0    0.0000
  16739 H        1739.9939  254.8187   10.1787 H      2789        0    0.0000
  16740 H        1738.7390  253.8873    9.3687 H      2789        0    0.0000
  16741 C        1740.7665  253.3388    8.7706 C.3    2790        0    0.0000
  16742 C        1741.4803  252.7023    9.9684 C.3    2790        0    0.0000
  16743 H        1740.2716  252.5638    8.1723 H      2790        0    0.0000
  16744 H        1741.4969  253.8260    8.1129 H      2790        0    0.0000
  16745 H        1742.5024  253.0928   10.0480 H      2790        0    0.0000
  16746 H        1740.9666  252.9723   10.8993 H      2790        0    0.0000
  16747 C        1741.5432  251.1397    9.8608 C.3    2791        0    0.0000
  16748 C        1742.9645  250.6007   10.0568 C.3    2791        0    0.0000
  16749 H        1740.8696  250.7063   10.6106 H      2791        0    0.0000
  16750 H        1741.1582  250.8370    8.8791 H      2791        0    0.0000
  16751 H        1743.6958  251.3145    9.6578 H      2791        0    0.0000
  16752 H        1743.1814  250.4922   11.1267 H      2791        0    0.0000
  16753 C        1743.1764  249.2150    9.3553 C.3    2792        0    0.0000
  16754 C        1744.6375  248.7552    9.4067 C.3    2792        0    0.0000
  16755 H        1742.5308  248.4714    9.8390 H      2792        0    0.0000
  16756 H        1742.8427  249.2916    8.3130 H      2792        0    0.0000
  16757 H        1745.2029  249.3768   10.1121 H      2792        0    0.0000
  16758 H        1744.6946  247.7248    9.7789 H      2792        0    0.0000
  16759 C        1745.3320  248.8247    8.0031 C.3    2793        0    0.0000
  16760 C        1746.2870  250.0178    7.8859 C.3    2793        0    0.0000
  16761 H        1745.8771  247.8884    7.8315 H      2793        0    0.0000
  16762 H        1744.5579  248.8850    7.2281 H      2793        0    0.0000
  16763 H        1745.9003  250.8671    8.4628 H      2793        0    0.0000
  16764 H        1747.2628  249.7622    8.3172 H      2793        0    0.0000
  16765 C        1746.4943  250.4692    6.3990 C.3    2794        0    0.0000
  16766 C        1747.9681  250.7324    6.0720 C.3    2794        0    0.0000
  16767 H        1746.0944  249.6929    5.7349 H      2794        0    0.0000
  16768 H        1745.9012  251.3743    6.2184 H      2794        0    0.0000
  16769 H        1748.4574  251.2329    6.9169 H      2794        0    0.0000
  16770 H        1748.4954  249.7824    5.9205 H      2794        0    0.0000
  16771 C        1748.1433  251.6175    4.7901 C.3    2795        0    0.0000
  16772 C        1748.7236  250.8264    3.6127 C.3    2795        0    0.0000
  16773 H        1747.1685  252.0395    4.5158 H      2795        0    0.0000
  16774 H        1748.7965  252.4651    5.0322 H      2795        0    0.0000
  16775 H        1748.7834  251.4654    2.7230 H      2795        0    0.0000
  16776 H        1749.7483  250.5087    3.8418 H      2795        0    0.0000
  16777 C        1747.8668  249.5595    3.2684 C.3    2796        0    0.0000
  16778 C        1748.7269  248.3975    2.7593 C.3    2796        0    0.0000
  16779 H        1747.3129  249.2531    4.1643 H      2796        0    0.0000
  16780 H        1747.1189  249.8329    2.5137 H      2796        0    0.0000
  16781 H        1748.3098  248.0022    1.8248 H      2796        0    0.0000
  16782 H        1749.7389  248.7519    2.5277 H      2796        0    0.0000
  16783 C        1748.8263  247.2308    3.8017 C.3    2797        0    0.0000
  16784 C        1748.1060  245.9642    3.3263 C.3    2797        0    0.0000
  16785 H        1749.8851  247.0134    3.9891 H      2797        0    0.0000
  16786 H        1748.4009  247.5705    4.7542 H      2797        0    0.0000
  16787 H        1747.7772  246.0863    2.2869 H      2797        0    0.0000
  16788 H        1748.7958  245.1115    3.3405 H      2797        0    0.0000
  16789 C        1746.8597  245.6211    4.2132 C.3    2798        0    0.0000
  16790 C        1745.5762  246.2744    3.6892 C.3    2798        0    0.0000
  16791 H        1746.7400  244.5311    4.2482 H      2798        0    0.0000
  16792 H        1747.0563  245.9496    5.2413 H      2798        0    0.0000
  16793 H        1745.8079  247.2427    3.2286 H      2798        0    0.0000
  16794 H        1745.1301  245.6509    2.9043 H      2798        0    0.0000
  16795 C        1744.5160  246.4948    4.8228 C.3    2799        0    0.0000
  16796 C        1743.7148  245.2234    5.1239 C.3    2799        0    0.0000
  16797 H        1745.0325  246.8372    5.7281 H      2799        0    0.0000
  16798 H        1743.8390  247.3036    4.5213 H      2799        0    0.0000
  16799 H        1742.7606  245.2432    4.5831 H      2799        0    0.0000
  16800 H        1744.2610  244.3413    4.7671 H      2799        0    0.0000
  16801 C        1743.4246  245.0529    6.6549 C.3    2800        0    0.0000
  16802 C        1744.4185  244.1027    7.3324 C.3    2800        0    0.0000
  16803 H        1743.4609  246.0391    7.1339 H      2800        0    0.0000
  16804 H        1742.4010  244.6787    6.7812 H      2800        0    0.0000
  16805 H        1744.1019  243.8997    8.3629 H      2800        0    0.0000
  16806 H        1744.4312  243.1375    6.8108 H      2800        0    0.0000
  16807 C        1745.8743  244.6836    7.3558 C.3    2801        0    0.0000
  16808 C        1746.6575  244.2382    8.5955 C.3    2801        0    0.0000
  16809 H        1746.3970  244.3642    6.4456 H      2801        0    0.0000
  16810 H        1745.8186  245.7786    7.3192 H      2801        0    0.0000
  16811 H        1746.2626  244.7371    9.4892 H      2801        0    0.0000
  16812 H        1746.5298  243.1602    8.7541 H      2801        0    0.0000
  16813 C        1748.1885  244.5534    8.4758 C.3    2802        0    0.0000
  16814 C        1748.5172  245.9967    8.8731 C.3    2802        0    0.0000
  16815 H        1748.7444  243.8525    9.1109 H      2802        0    0.0000
  16816 H        1748.5085  244.3651    7.4436 H      2802        0    0.0000
  16817 H        1747.8394  246.6913    8.3616 H      2802        0    0.0000
  16818 H        1748.3577  246.1362    9.9495 H      2802        0    0.0000
  16819 C        1749.9957  246.3862    8.5266 C.3    2803        0    0.0000
  16820 C        1750.1562  247.8894    8.2740 C.3    2803        0    0.0000
  16821 H        1750.6469  246.0717    9.3516 H      2803        0    0.0000
  16822 H        1750.3124  245.8201    7.6419 H      2803        0    0.0000
  16823 H        1749.2047  248.3176    7.9350 H      2803        0    0.0000
  16824 H        1750.4174  248.4021    9.2081 H      2803        0    0.0000
  16825 C        1751.2590  248.1974    7.2034 C.3    2804        0    0.0000
  16826 C        1752.0262  249.4873    7.5142 C.3    2804        0    0.0000
  16827 H        1751.9531  247.3490    7.1563 H      2804        0    0.0000
  16828 H        1750.7839  248.2706    6.2172 H      2804        0    0.0000
  16829 H        1751.3469  250.3478    7.4746 H      2804        0    0.0000
  16830 H        1752.4277  249.4495    8.5344 H      2804        0    0.0000
  16831 C        1753.2090  249.7307    6.5143 C.3    2805        0    0.0000
  16832 C        1753.6215  251.2055    6.4505 C.3    2805        0    0.0000
  16833 H        1754.0631  249.1141    6.8202 H      2805        0    0.0000
  16834 H        1752.9082  249.3808    5.5190 H      2805        0    0.0000
  16835 H        1752.8578  251.7869    5.9188 H      2805        0    0.0000
  16836 H        1753.6860  251.6221    7.4632 H      2805        0    0.0000
  16837 C        1755.0002  251.4062    5.7323 C.3    2806        0    0.0000
  16838 C        1754.8862  252.3067    4.4974 C.3    2806        0    0.0000
  16839 H        1755.7120  251.8367    6.4475 H      2806        0    0.0000
  16840 H        1755.3961  250.4239    5.4463 H      2806        0    0.0000
  16841 H        1754.6227  253.3280    4.7995 H      2806        0    0.0000
  16842 H        1755.8552  252.3694    3.9867 H      2806        0    0.0000
  16843 C        1753.8119  251.7875    3.4806 C.3    2807        0    0.0000
  16844 C        1754.4353  251.3460    2.1518 C.3    2807        0    0.0000
  16845 H        1753.2679  250.9512    3.9371 H      2807        0    0.0000
  16846 H        1753.0773  252.5831    3.3055 H      2807        0    0.0000
  16847 H        1753.6511  251.2002    1.3985 H      2807        0    0.0000
  16848 H        1755.0985  252.1313    1.7682 H      2807        0    0.0000
  16849 C        1755.2545  250.0169    2.2925 C.3    2808        0    0.0000
  16850 C        1756.6465  250.1229    1.6598 C.3    2808        0    0.0000
  16851 H        1755.3431  249.7672    3.3570 H      2808        0    0.0000
  16852 H        1754.6892  249.2020    1.8236 H      2808        0    0.0000
  16853 H        1756.8763  249.2075    1.1007 H      2808        0    0.0000
  16854 H        1756.6694  250.9479    0.9371 H      2808        0    0.0000
  16855 C        1757.7687  250.3569    2.7292 C.3    2809        0    0.0000
  16856 C        1759.1200  250.6935    2.0890 C.3    2809        0    0.0000
  16857 H        1757.4565  251.1690    3.3974 H      2809        0    0.0000
  16858 H        1757.8600  249.4564    3.3489 H      2809        0    0.0000
  16859 H        1759.3063  250.0319    1.2339 H      2809        0    0.0000
  16860 H        1759.1058  251.7181    1.6973 H      2809        0    0.0000
  16861 C        1760.3082  250.5561    3.1024 C.3    2810        0    0.0000
  16862 C        1760.5328  251.8382    3.9116 C.3    2810        0    0.0000
  16863 H        1760.1017  249.7165    3.7776 H      2810        0    0.0000
  16864 H        1761.2184  250.2975    2.5471 H      2810        0    0.0000
  16865 H        1761.1531  252.5399    3.3401 H      2810        0    0.0000
  16866 H        1759.5747  252.3409    4.0934 H      2810        0    0.0000
  16867 C        1761.2257  251.5576    5.2894 C.3    2811        0    0.0000
  16868 C        1761.4194  252.8355    6.1131 C.3    2811        0    0.0000
  16869 H        1760.6180  250.8368    5.8505 H      2811        0    0.0000
  16870 H        1762.1949  251.0774    5.1064 H      2811        0    0.0000
  16871 H        1762.3925  252.8128    6.6193 H      2811        0    0.0000
  16872 H        1761.4282  253.7113    5.4524 H      2811        0    0.0000
  16873 C        1760.2948  253.0251    7.1887 C.3    2812        0    0.0000
  16874 C        1759.8807  254.4926    7.3436 C.3    2812        0    0.0000
  16875 H        1759.4270  252.4174    6.9040 H      2812        0    0.0000
  16876 H        1760.6533  252.6322    8.1483 H      2812        0    0.0000
  16877 H        1759.3303  254.6312    8.2823 H      2812        0    0.0000
  16878 H        1760.7714  255.1304    7.4036 H      2812        0    0.0000
  16879 C        1758.9851  254.9858    6.1553 C.3    2813        0    0.0000
  16880 C        1759.3853  256.3825    5.6670 C.3    2813        0    0.0000
  16881 H        1759.0603  254.2639    5.3324 H      2813        0    0.0000
  16882 H        1757.9369  254.9865    6.4788 H      2813        0    0.0000
  16883 H        1758.7405  257.1411    6.1278 H      2813        0    0.0000
  16884 H        1760.4121  256.6102    5.9792 H      2813        0    0.0000
  16885 C        1759.2893  256.5170    4.1081 C.3    2814        0    0.0000
  16886 C        1760.6649  256.6888    3.4542 C.3    2814        0    0.0000
  16887 H        1758.7905  255.6264    3.7064 H      2814        0    0.0000
  16888 H        1758.6481  257.3735    3.8660 H      2814        0    0.0000
  16889 H        1761.0963  257.6576    3.7347 H      2814        0    0.0000
  16890 H        1761.3546  255.9186    3.8210 H      2814        0    0.0000
  16891 C        1760.5946  256.6009    1.8906 C.3    2815        0    0.0000
  16892 C        1761.6151  255.6110    1.3180 C.3    2815        0    0.0000
  16893 H        1759.5792  256.3054    1.5984 H      2815        0    0.0000
  16894 H        1760.7644  257.6006    1.4723 H      2815        0    0.0000
  16895 H        1762.6176  256.0569    1.3272 H      2815        0    0.0000
  16896 H        1761.6636  254.7141    1.9478 H      2815        0    0.0000
  16897 C        1761.2671  255.1806   -0.1486 C.3    2816        0    0.0000
  16898 C        1761.6165  253.7133   -0.4217 C.3    2816        0    0.0000
  16899 H        1760.1975  255.3512   -0.3228 H      2816        0    0.0000
  16900 H        1761.8077  255.8321   -0.8461 H      2816        0    0.0000
  16901 H        1760.8182  253.0607   -0.0470 H      2816        0    0.0000
  16902 H        1761.6857  253.5380   -1.5024 H      2816        0    0.0000
  16903 C        1762.9701  253.2908    0.2465 C.3    2817        0    0.0000
  16904 C        1763.2112  251.7793    0.1653 C.3    2817        0    0.0000
  16905 H        1763.7902  253.8293   -0.2445 H      2817        0    0.0000
  16906 H        1762.9634  253.6148    1.2946 H      2817        0    0.0000
  16907 H        1762.2781  251.2383    0.3652 H      2817        0    0.0000
  16908 H        1763.5247  251.5024   -0.8490 H      2817        0    0.0000
  16909 C        1764.3029  251.2963    1.1812 C.3    2818        0    0.0000
  16910 C        1764.4816  249.7742    1.1619 C.3    2818        0    0.0000
  16911 H        1765.2527  251.7896    0.9406 H      2818        0    0.0000
  16912 H        1764.0211  251.6292    2.1879 H      2818        0    0.0000
  16913 H        1763.5062  249.2798    1.2521 H      2818        0    0.0000
  16914 H        1764.9075  249.4576    0.2017 H      2818        0    0.0000
  16915 C        1765.4124  249.2705    2.3183 C.3    2819        0    0.0000
  16916 C        1764.6162  248.7765    3.5313 C.3    2819        0    0.0000
  16917 H        1766.0500  248.4649    1.9335 H      2819        0    0.0000
  16918 H        1766.0814  250.0876    2.6150 H      2819        0    0.0000
  16919 H        1763.5427  248.9293    3.3642 H      2819        0    0.0000
  16920 H        1764.7639  247.6976    3.6642 H      2819        0    0.0000
  16921 C        1765.0312  249.5099    4.8531 C.3    2820        0    0.0000
  16922 C        1766.3232  248.9423    5.4513 C.3    2820        0    0.0000
  16923 H        1765.1532  250.5794    4.6408 H      2820        0    0.0000
  16924 H        1764.2118  249.4241    5.5776 H      2820        0    0.0000
  16925 H        1766.2241  248.8485    6.5398 H      2820        0    0.0000
  16926 H        1766.5055  247.9326    5.0633 H      2820        0    0.0000
  16927 C        1767.5693  249.8386    5.1328 C.3    2821        0    0.0000
  16928 C        1768.0453  250.6280    6.3572 C.3    2821        0    0.0000
  16929 H        1768.3788  249.1990    4.7597 H      2821        0    0.0000
  16930 H        1767.3109  250.5269    4.3185 H      2821        0    0.0000
  16931 H        1767.1833  250.9597    6.9493 H      2821        0    0.0000
  16932 H        1768.6465  249.9832    7.0100 H      2821        0    0.0000
  16933 C        1768.8984  251.8820    5.9607 C.3    2822        0    0.0000
  16934 C        1768.0968  253.1846    6.0590 C.3    2822        0    0.0000
  16935 H        1769.7787  251.9318    6.6136 H      2822        0    0.0000
  16936 H        1769.2722  251.7466    4.9381 H      2822        0    0.0000
  16937 H        1767.2277  253.0429    6.7133 H      2822        0    0.0000
  16938 H        1768.7106  253.9705    6.5164 H      2822        0    0.0000
  16939 C        1767.5990  253.6831    4.6585 C.3    2823        0    0.0000
  16940 C        1768.0662  255.1099    4.3501 C.3    2823        0    0.0000
  16941 H        1767.9635  252.9930    3.8876 H      2823        0    0.0000
  16942 H        1766.5034  253.6325    4.6342 H      2823        0    0.0000
  16943 H        1767.7706  255.3907    3.3319 H      2823        0    0.0000
  16944 H        1767.5768  255.8205    5.0276 H      2823        0    0.0000
  16945 C        1769.6196  255.2690    4.4876 C.3    2824        0    0.0000
  16946 C        1770.3085  255.4402    3.1290 C.3    2824        0    0.0000
  16947 H        1769.8313  256.1340    5.1283 H      2824        0    0.0000
  16948 H        1770.0210  254.3884    5.0044 H      2824        0    0.0000
  16949 H        1769.5571  255.5150    2.3332 H      2824        0    0.0000
  16950 H        1770.8794  256.3769    3.1123 H      2824        0    0.0000
  16951 C        1771.2767  254.2522    2.7999 C.3    2825        0    0.0000
  16952 C        1772.7494  254.6345    2.9854 C.3    2825        0    0.0000
  16953 H        1771.0248  253.4015    3.4451 H      2825        0    0.0000
  16954 H        1771.0997  253.9274    1.7670 H      2825        0    0.0000
  16955 H        1773.0986  255.2153    2.1228 H      2825        0    0.0000
  16956 H        1772.8625  255.2790    3.8659 H      2825        0    0.0000
  16957 C        1773.6722  253.3788    3.1563 C.3    2826        0    0.0000
  16958 C        1774.6285  253.5185    4.3460 C.3    2826        0    0.0000
  16959 H        1773.0409  252.4907    3.2833 H      2826        0    0.0000
  16960 H        1774.2423  253.2305    2.2309 H      2826        0    0.0000
  16961 H        1775.4729  254.1646    4.0760 H      2826        0    0.0000
  16962 H        1774.1158  254.0042    5.1856 H      2826        0    0.0000
  16963 C        1775.1851  252.1340    4.8264 C.3    2827        0    0.0000
  16964 C        1775.8341  252.2181    6.2123 C.3    2827        0    0.0000
  16965 H        1774.3628  251.4078    4.8396 H      2827        0    0.0000
  16966 H        1775.9141  251.7714    4.0910 H      2827        0    0.0000
  16967 H        1775.4291  253.0743    6.7660 H      2827        0    0.0000
  16968 H        1775.5912  251.3217    6.7965 H      2827        0    0.0000
  16969 C        1777.3931  252.3608    6.1306 C.3    2828        0    0.0000
  16970 C        1777.8936  253.6504    6.7907 C.3    2828        0    0.0000
  16971 H        1777.8536  251.4889    6.6115 H      2828        0    0.0000
  16972 H        1777.6957  252.3359    5.0765 H      2828        0    0.0000
  16973 H        1777.4749  254.5237    6.2756 H      2828        0    0.0000
  16974 H        1777.5457  253.7007    7.8300 H      2828        0    0.0000
  16975 C        1779.4576  253.7569    6.7758 C.3    2829        0    0.0000
  16976 C        1779.9742  254.5529    5.5721 C.3    2829        0    0.0000
  16977 H        1779.7888  254.2290    7.7091 H      2829        0    0.0000
  16978 H        1779.8810  252.7449    6.7671 H      2829        0    0.0000
  16979 H        1779.2114  254.5805    4.7841 H      2829        0    0.0000
  16980 H        1780.1643  255.5936    5.8630 H      2829        0    0.0000
  16981 C        1781.2920  253.9453    4.9792 C.3    2830        0    0.0000
  16982 C        1782.3787  255.0059    4.7716 C.3    2830        0    0.0000
  16983 H        1781.6555  253.1616    5.6554 H      2830        0    0.0000
  16984 H        1781.0577  253.4551    4.0261 H      2830        0    0.0000
  16985 H        1782.9991  254.7442    3.9055 H      2830        0    0.0000
  16986 H        1781.9189  255.9766    4.5480 H      2830        0    0.0000
  16987 C        1783.3040  255.1621    6.0272 C.3    2831        0    0.0000
  16988 C        1784.7738  255.3660    5.6438 C.3    2831        0    0.0000
  16989 H        1782.9496  256.0117    6.6241 H      2831        0    0.0000
  16990 H        1783.1997  254.2696    6.6565 H      2831        0    0.0000
  16991 H        1784.8724  256.2336    4.9797 H      2831        0    0.0000
  16992 H        1785.3693  255.5848    6.5388 H      2831        0    0.0000
  16993 C        1785.3807  254.1102    4.9280 C.3    2832        0    0.0000
  16994 C        1786.8560  254.3069    4.5615 C.3    2832        0    0.0000
  16995 H        1785.2695  253.2397    5.5863 H      2832        0    0.0000
  16996 H        1784.7938  253.8996    4.0253 H      2832        0    0.0000
  16997 H        1787.0936  253.7500    3.6466 H      2832        0    0.0000
  16998 H        1787.0524  255.3646    4.3466 H      2832        0    0.0000
  16999 C        1787.8199  253.8361    5.7044 C.3    2833        0    0.0000
  17000 C        1789.0769  254.7079    5.8002 C.3    2833        0    0.0000
  17001 H        1787.2754  253.8554    6.6566 H      2833        0    0.0000
  17002 H        1788.1000  252.7910    5.5227 H      2833        0    0.0000
  17003 H        1788.8719  255.7085    5.3999 H      2833        0    0.0000
  17004 H        1789.3629  254.8415    6.8509 H      2833        0    0.0000
  17005 C        1790.2891  254.0904    5.0212 C.3    2834        0    0.0000
  17006 C        1790.9561  255.1051    4.0861 C.3    2834        0    0.0000
  17007 H        1791.0192  253.7109    5.7467 H      2834        0    0.0000
  17008 H        1789.9363  253.2249    4.4469 H      2834        0    0.0000
  17009 H        1791.8953  254.6949    3.6943 H      2834        0    0.0000
  17010 H        1790.3114  255.2991    3.2199 H      2834        0    0.0000
  17011 C        1791.2595  256.4650    4.8045 C.3    2835        0    0.0000
  17012 C        1792.7534  256.8076    4.7925 C.3    2835        0    0.0000
  17013 H        1790.6871  257.2607    4.3119 H      2835        0    0.0000
  17014 H        1790.8949  256.4081    5.8378 H      2835        0    0.0000
  17015 H        1793.0764  257.0453    3.7714 H      2835        0    0.0000
  17016 H        1792.9387  257.7032    5.3983 H      2835        0    0.0000
  17017 C        1793.6365  255.6345    5.3415 C.3    2836        0    0.0000
  17018 C        1795.1187  255.8110    4.9932 C.3    2836        0    0.0000
  17019 H        1793.5103  255.5762    6.4297 H      2836        0    0.0000
  17020 H        1793.2634  254.6885    4.9300 H      2836        0    0.0000
  17021 H        1795.5100  256.7211    5.4645 H      2836        0    0.0000
  17022 H        1795.7017  254.9727    5.3946 H      2836        0    0.0000
  17023 C        1795.3591  255.8992    3.4467 C.3    2837        0    0.0000
  17024 C        1796.8383  256.1008    3.0995 C.3    2837        0    0.0000
  17025 H        1794.9845  254.9810    2.9776 H      2837        0    0.0000
  17026 H        1794.7617  256.7258    3.0426 H      2837        0    0.0000
  17027 H        1797.4015  255.1819    3.3044 H      2837        0    0.0000
  17028 H        1796.9485  256.3053    2.0273 H      2837        0    0.0000
  17029 C        1797.4830  257.2793    3.9075 C.3    2838        0    0.0000
  17030 C        1798.9702  257.0424    4.1931 C.3    2838        0    0.0000
  17031 H        1797.3524  258.2096    3.3410 H      2838        0    0.0000
  17032 H        1796.9344  257.4041    4.8493 H      2838        0    0.0000
  17033 H        1799.2063  257.3341    5.2239 H      2838        0    0.0000
  17034 H        1799.2043  255.9743    4.1064 H      2838        0    0.0000
  17035 C        1799.8978  257.8439    3.2161 C.3    2839        0    0.0000
  17036 C        1801.3771  257.7401    3.6034 C.3    2839        0    0.0000
  17037 H        1799.7484  257.4662    2.1970 H      2839        0    0.0000
  17038 H        1799.5830  258.8947    3.2119 H      2839        0    0.0000
  17039 H        1801.9055  258.6588    3.3200 H      2839        0    0.0000
  17040 H        1801.4751  257.6434    4.6917 H      2839        0    0.0000
  17041 C        1802.0853  256.5190    2.9217 C.3    2840        0    0.0000
  17042 C        1803.2366  255.9674    3.7699 C.3    2840        0    0.0000
  17043 H        1801.3408  255.7337    2.7418 H      2840        0    0.0000
  17044 H        1802.4585  256.8306    1.9383 H      2840        0    0.0000
  17045 H        1803.7278  255.1392    3.2442 H      2840        0    0.0000
  17046 H        1803.9989  256.7422    3.9188 H      2840        0    0.0000
  17047 C        1802.7517  255.4597    5.1714 C.3    2841        0    0.0000
  17048 C        1803.8635  255.5130    6.2251 C.3    2841        0    0.0000
  17049 H        1801.8990  256.0704    5.4932 H      2841        0    0.0000
  17050 H        1802.3815  254.4323    5.0667 H      2841        0    0.0000
  17051 H        1803.7567  254.6768    6.9270 H      2841        0    0.0000
  17052 H        1804.8430  255.3979    5.7445 H      2841        0    0.0000
  17053 C        1803.8521  256.8560    7.0335 C.3    2842        0    0.0000
  17054 C        1805.2570  257.4448    7.2017 C.3    2842        0    0.0000
  17055 H        1803.2026  257.5740    6.5173 H      2842        0    0.0000
  17056 H        1803.4008  256.6730    8.0166 H      2842        0    0.0000
  17057 H        1805.6301  257.8095    6.2365 H      2842        0    0.0000
  17058 H        1805.2239  258.3111    7.8740 H      2842        0    0.0000
  17059 C        1806.2748  256.3991    7.7745 C.3    2843        0    0.0000
  17060 C        1807.6890  256.6005    7.2189 C.3    2843        0    0.0000
  17061 H        1806.2855  256.4787    8.8686 H      2843        0    0.0000
  17062 H        1805.9169  255.3899    7.5356 H      2843        0    0.0000
  17063 H        1807.9868  257.6515    7.3205 H      2843        0    0.0000
  17064 H        1808.4088  256.0113    7.8002 H      2843        0    0.0000
  17065 C        1807.7990  256.1877    5.7106 C.3    2844        0    0.0000
  17066 C        1808.8494  257.0120    4.9579 C.3    2844        0    0.0000
  17067 H        1808.0465  255.1205    5.6531 H      2844        0    0.0000
  17068 H        1806.8163  256.3091    5.2382 H      2844        0    0.0000
  17069 H        1808.8159  258.0570    5.2899 H      2844        0    0.0000
  17070 H        1809.8553  256.6402    5.1887 H      2844        0    0.0000
  17071 C        1808.6382  256.9681    3.4052 C.3    2845        0    0.0000
  17072 C        1809.3433  258.1260    2.6901 C.3    2845        0    0.0000
  17073 H        1809.0100  256.0087    3.0246 H      2845        0    0.0000
  17074 H        1807.5621  256.9951    3.1939 H      2845        0    0.0000
  17075 H        1809.5912  257.8376    1.6612 H      2845        0    0.0000
  17076 H        1808.6714  258.9907    2.6217 H      2845        0    0.0000
  17077 C        1810.6580  258.5644    3.4228 C.3    2846        0    0.0000
  17078 C        1811.1902  259.9060    2.9074 C.3    2846        0    0.0000
  17079 H        1810.4584  258.6277    4.4997 H      2846        0    0.0000
  17080 H        1811.4155  257.7824    3.2881 H      2846        0    0.0000
  17081 H        1812.2850  259.9266    2.9725 H      2846        0    0.0000
  17082 H        1810.9353  260.0298    1.8475 H      2846        0    0.0000
  17083 C        1810.6133  261.1223    3.7108 C.3    2847        0    0.0000
  17084 C        1811.6266  261.6918    4.7096 C.3    2847        0    0.0000
  17085 H        1810.3059  261.9007    3.0014 H      2847        0    0.0000
  17086 H        1809.7063  260.8001    4.2372 H      2847        0    0.0000
  17087 H        1812.6482  261.4813    4.3704 H      2847        0    0.0000
  17088 H        1811.5304  262.7834    4.7619 H      2847        0    0.0000
  17089 C        1811.4398  261.0988    6.1488 C.3    2848        0    0.0000
  17090 C        1812.6420  260.2568    6.5906 C.3    2848        0    0.0000
  17091 H        1811.2795  261.9244    6.8533 H      2848        0    0.0000
  17092 H        1810.5277  260.4896    6.1646 H      2848        0    0.0000
  17093 H        1812.4919  259.8961    7.6158 H      2848        0    0.0000
  17094 H        1812.7330  259.3682    5.9539 H      2848        0    0.0000
  17095 C        1813.9857  261.0621    6.5298 C.3    2849        0    0.0000
  17096 C        1815.1636  260.1931    6.0751 C.3    2849        0    0.0000
  17097 H        1813.8585  261.9108    5.8466 H      2849        0    0.0000
  17098 H        1814.1903  261.4840    7.5215 H      2849        0    0.0000
  17099 H        1816.1045  260.6021    6.4635 H      2849        0    0.0000
  17100 H        1815.0657  259.1813    6.4876 H      2849        0    0.0000
  17101 C        1815.2615  260.0951    4.5135 C.3    2850        0    0.0000
  17102 C        1815.9277  258.7936    4.0539 C.3    2850        0    0.0000
  17103 H        1814.2521  260.1709    4.0906 H      2850        0    0.0000
  17104 H        1815.8253  260.9587    4.1398 H      2850        0    0.0000
  17105 H        1817.0068  258.8347    4.2474 H      2850        0    0.0000
  17106 H        1815.5361  257.9466    4.6309 H      2850        0    0.0000
  17107 C        1815.6981  258.5152    2.5284 C.3    2851        0    0.0000
  17108 C        1815.7974  257.0240    2.1887 C.3    2851        0    0.0000
  17109 H        1814.7118  258.9011    2.2430 H      2851        0    0.0000
  17110 H        1816.4379  259.0828    1.9502 H      2851        0    0.0000
  17111 H        1815.5092  256.4201    3.0581 H      2851        0    0.0000
  17112 H        1815.0945  256.7739    1.3845 H      2851        0    0.0000
  17113 C        1817.2424  256.6109    1.7435 C.3    2852        0    0.0000
  17114 C        1817.9169  255.6766    2.7541 C.3    2852        0    0.0000
  17115 H        1817.1846  256.1244    0.7619 H      2852        0    0.0000
  17116 H        1817.8445  257.5183    1.6103 H      2852        0    0.0000
  17117 H        1818.9965  255.6331    2.5639 H      2852        0    0.0000
  17118 H        1817.7917  256.0693    3.7709 H      2852        0    0.0000
  17119 C        1817.3348  254.2220    2.6990 C.3    2853        0    0.0000
  17120 C        1817.2479  253.5784    4.0873 C.3    2853        0    0.0000
  17121 H        1816.3402  254.2565    2.2373 H      2853        0    0.0000
  17122 H        1817.9668  253.6131    2.0409 H      2853        0    0.0000
  17123 H        1817.5411  252.5229    4.0316 H      2853        0    0.0000
  17124 H        1817.9528  254.0655    4.7726 H      2853        0    0.0000
  17125 C        1815.8060  253.6710    4.6956 C.3    2854        0    0.0000
  17126 C        1815.7954  254.3654    6.0618 C.3    2854        0    0.0000
  17127 H        1815.1600  254.2124    3.9934 H      2854        0    0.0000
  17128 H        1815.3945  252.6579    4.7853 H      2854        0    0.0000
  17129 H        1816.7021  254.1061    6.6226 H      2854        0    0.0000
  17130 H        1815.8070  255.4544    5.9303 H      2854        0    0.0000
  17131 C        1814.5422  253.9730    6.9180 C.3    2855        0    0.0000
  17132 C        1814.2902  254.9587    8.0643 C.3    2855        0    0.0000
  17133 H        1813.6650  253.9280    6.2608 H      2855        0    0.0000
  17134 H        1814.6892  252.9617    7.3170 H      2855        0    0.0000
  17135 H        1813.5242  255.6876    7.7721 H      2855        0    0.0000
  17136 H        1813.8998  254.4254    8.9400 H      2855        0    0.0000
  17137 C        1815.5894  255.7307    8.4804 C.3    2856        0    0.0000
  17138 C        1815.2791  257.0047    9.2740 C.3    2856        0    0.0000
  17139 H        1816.2229  255.0616    9.0759 H      2856        0    0.0000
  17140 H        1816.1576  255.9801    7.5758 H      2856        0    0.0000
  17141 H        1814.2441  257.3191    9.0911 H      2856        0    0.0000
  17142 H        1815.3628  256.8074   10.3499 H      2856        0    0.0000
  17143 C        1816.2395  258.1860    8.9006 C.3    2857        0    0.0000
  17144 C        1817.5411  258.1539    9.7090 C.3    2857        0    0.0000
  17145 H        1816.4617  258.1353    7.8275 H      2857        0    0.0000
  17146 H        1815.7152  259.1348    9.0693 H      2857        0    0.0000
  17147 H        1817.5203  258.9276   10.4866 H      2857        0    0.0000
  17148 H        1817.6398  257.1909   10.2252 H      2857        0    0.0000
  17149 C        1818.8053  258.3764    8.8088 C.3    2858        0    0.0000
  17150 C        1818.9928  259.8482    8.4242 C.3    2858        0    0.0000
  17151 H        1819.6899  258.0124    9.3454 H      2858        0    0.0000
  17152 H        1818.7089  257.7611    7.9058 H      2858        0    0.0000
  17153 H        1818.0164  260.3222    8.2634 H      2858        0    0.0000
  17154 H        1819.4758  260.3929    9.2449 H      2858        0    0.0000
  17155 C        1819.8568  260.0181    7.1274 C.3    2859        0    0.0000
  17156 C        1821.3604  259.9988    7.4244 C.3    2859        0    0.0000
  17157 H        1819.6018  259.2149    6.4250 H      2859        0    0.0000
  17158 H        1819.5818  260.9618    6.6404 H      2859        0    0.0000
  17159 H        1821.6802  260.9750    7.8098 H      2859        0    0.0000
  17160 H        1821.5793  259.2636    8.2087 H      2859        0    0.0000
  17161 C        1822.2124  259.6528    6.1551 C.3    2860        0    0.0000
  17162 C        1823.0559  260.8410    5.6801 C.3    2860        0    0.0000
  17163 H        1822.8617  258.7994    6.3869 H      2860        0    0.0000
  17164 H        1821.5374  259.3265    5.3542 H      2860        0    0.0000
  17165 H        1822.4055  261.6901    5.4356 H      2860        0    0.0000
  17166 H        1823.7216  261.1756    6.4854 H      2860        0    0.0000
  17167 C        1823.9222  260.4895    4.4217 C.3    2861        0    0.0000
  17168 C        1823.2102  260.8391    3.1102 C.3    2861        0    0.0000
  17169 H        1824.8757  261.0281    4.4871 H      2861        0    0.0000
  17170 H        1824.1625  259.4193    4.4455 H      2861        0    0.0000
  17171 H        1822.5077  261.6660    3.2724 H      2861        0    0.0000
  17172 H        1823.9392  261.1861    2.3674 H      2861        0    0.0000
  17173 C        1822.4257  259.6188    2.5164 C.3    2862        0    0.0000
  17174 C        1823.0833  259.0679    1.2462 C.3    2862        0    0.0000
  17175 H        1822.3644  258.8328    3.2793 H      2862        0    0.0000
  17176 H        1821.3961  259.9307    2.3020 H      2862        0    0.0000
  17177 H        1822.3838  258.4099    0.7156 H      2862        0    0.0000
  17178 H        1823.3243  259.8897    0.5607 H      2862        0    0.0000
  17179 C        1824.3948  258.2668    1.5558 C.3    2863        0    0.0000
  17180 C        1824.2247  256.7616    1.3223 C.3    2863        0    0.0000
  17181 H        1825.2040  258.6562    0.9256 H      2863        0    0.0000
  17182 H        1824.6871  258.4555    2.5961 H      2863        0    0.0000
  17183 H        1823.8303  256.5794    0.3149 H      2863        0    0.0000
  17184 H        1825.1991  256.2604    1.3747 H      2863        0    0.0000
  17185 C        1823.2610  256.1032    2.3688 C.3    2864        0    0.0000
  17186 C        1823.9969  255.1501    3.3170 C.3    2864        0    0.0000
  17187 H        1822.7665  256.8968    2.9424 H      2864        0    0.0000
  17188 H        1822.4712  255.5637    1.8318 H      2864        0    0.0000
  17189 H        1824.2026  254.1994    2.8097 H      2864        0    0.0000
  17190 H        1824.9691  255.5744    3.5970 H      2864        0    0.0000
  17191 C        1823.1776  254.8597    4.6214 C.3    2865        0    0.0000
  17192 C        1823.7645  255.5701    5.8462 C.3    2865        0    0.0000
  17193 H        1822.1390  255.1765    4.4646 H      2865        0    0.0000
  17194 H        1823.1544  253.7760    4.7905 H      2865        0    0.0000
  17195 H        1824.8602  255.5688    5.7926 H      2865        0    0.0000
  17196 H        1823.4509  256.6214    5.8573 H      2865        0    0.0000
  17197 C        1823.3235  254.8969    7.1915 C.3    2866        0    0.0000
  17198 C        1823.9233  255.5975    8.4157 C.3    2866        0    0.0000
  17199 H        1822.2281  254.9089    7.2504 H      2866        0    0.0000
  17200 H        1823.6266  253.8426    7.1753 H      2866        0    0.0000
  17201 H        1823.1223  255.9533    9.0754 H      2866        0    0.0000
  17202 H        1824.5209  254.8871    9.0003 H      2866        0    0.0000
  17203 C        1824.8293  256.8138    8.0194 C.3    2867        0    0.0000
  17204 C        1825.1024  257.7454    9.2055 C.3    2867        0    0.0000
  17205 H        1825.7753  256.4332    7.6147 H      2867        0    0.0000
  17206 H        1824.3409  257.3695    7.2094 H      2867        0    0.0000
  17207 H        1824.1718  257.9402    9.7529 H      2867        0    0.0000
  17208 H        1825.7887  257.2630    9.9124 H      2867        0    0.0000
  17209 C        1825.7201  259.1143    8.7559 C.3    2868        0    0.0000
  17210 C        1825.5281  260.2118    9.8084 C.3    2868        0    0.0000
  17211 H        1826.7886  258.9705    8.5531 H      2868        0    0.0000
  17212 H        1825.2576  259.4167    7.8083 H      2868        0    0.0000
  17213 H        1824.4719  260.2740   10.0986 H      2868        0    0.0000
  17214 H        1826.0906  259.9639   10.7170 H      2868        0    0.0000
  17215 C        1825.9940  261.6171    9.2932 C.3    2869        0    0.0000
  17216 C        1824.8732  262.6604    9.3577 C.3    2869        0    0.0000
  17217 H        1826.8506  261.9477    9.8936 H      2869        0    0.0000
  17218 H        1826.3531  261.5143    8.2617 H      2869        0    0.0000
  17219 H        1823.9858  262.2300    9.8382 H      2869        0    0.0000
  17220 H        1825.1855  263.5104    9.9772 H      2869        0    0.0000
  17221 C        1824.4722  263.1903    7.9379 C.3    2870        0    0.0000
  17222 C        1825.1066  264.5498    7.6247 C.3    2870        0    0.0000
  17223 H        1824.7756  262.4514    7.1859 H      2870        0    0.0000
  17224 H        1823.3789  263.2640    7.8838 H      2870        0    0.0000
  17225 H        1824.8632  265.2699    8.4158 H      2870        0    0.0000
  17226 H        1826.2001  264.4596    7.6066 H      2870        0    0.0000
  17227 C        1824.6246  265.1278    6.2496 C.3    2871        0    0.0000
  17228 C        1825.3806  264.5154    5.0652 C.3    2871        0    0.0000
  17229 H        1823.5485  264.9421    6.1455 H      2871        0    0.0000
  17230 H        1824.7571  266.2168    6.2577 H      2871        0    0.0000
  17231 H        1826.3890  264.9423    5.0015 H      2871        0    0.0000
  17232 H        1825.5043  263.4358    5.2156 H      2871        0    0.0000
  17233 C        1824.6437  264.7545    3.7024 C.3    2872        0    0.0000
  17234 C        1825.6210  264.8897    2.5295 C.3    2872        0    0.0000
  17235 H        1823.9535  263.9210    3.5226 H      2872        0    0.0000
  17236 H        1824.0295  265.6597    3.7865 H      2872        0    0.0000
  17237 H        1825.2057  265.5636    1.7697 H      2872        0    0.0000
  17238 H        1826.5598  265.3419    2.8723 H      2872        0    0.0000
  17239 C        1825.9402  263.5087    1.8598 C.3    2873        0    0.0000
  17240 C        1827.1860  262.8468    2.4588 C.3    2873        0    0.0000
  17241 H        1825.0710  262.8497    1.9769 H      2873        0    0.0000
  17242 H        1826.0768  263.6617    0.7820 H      2873        0    0.0000
  17243 H        1828.0623  263.0595    1.8338 H      2873        0    0.0000
  17244 H        1827.3961  263.2682    3.4497 H      2873        0    0.0000
  17245 C        1827.0267  261.2931    2.5939 C.3    2874        0    0.0000
  17246 C        1828.2394  260.6413    3.2673 C.3    2874        0    0.0000
  17247 H        1826.1171  261.0797    3.1689 H      2874        0    0.0000
  17248 H        1826.8756  260.8650    1.5952 H      2874        0    0.0000
  17249 H        1829.1636  261.1239    2.9261 H      2874        0    0.0000
  17250 H        1828.1902  260.7873    4.3535 H      2874        0    0.0000
  17251 C        1828.3311  259.1053    2.9676 C.3    2875        0    0.0000
  17252 C        1829.3588  258.3998    3.8591 C.3    2875        0    0.0000
  17253 H        1827.3396  258.6576    3.1093 H      2875        0    0.0000
  17254 H        1828.5912  258.9662    1.9108 H      2875        0    0.0000
  17255 H        1829.0093  258.3873    4.8989 H      2875        0    0.0000
  17256 H        1829.4680  257.3526    3.5509 H      2875        0    0.0000
  17257 C        1830.7648  259.0911    3.8068 C.3    2876        0    0.0000
  17258 C        1831.5963  258.8122    5.0638 C.3    2876        0    0.0000
  17259 H        1831.2994  258.7385    2.9162 H      2876        0    0.0000
  17260 H        1830.6229  260.1718    3.6819 H      2876        0    0.0000
  17261 H        1831.3557  259.5449    5.8442 H      2876        0    0.0000
  17262 H        1831.3439  257.8250    5.4702 H      2876        0    0.0000
  17263 C        1833.1372  258.8632    4.7802 C.3    2877        0    0.0000
  17264 C        1833.7236  260.2610    5.0068 C.3    2877        0    0.0000
  17265 H        1833.6403  258.1346    5.4281 H      2877        0    0.0000
  17266 H        1833.3173  258.5427    3.7466 H      2877        0    0.0000
  17267 H        1833.2026  260.9939    4.3783 H      2877        0    0.0000
  17268 H        1833.5670  260.5705    6.0476 H      2877        0    0.0000
  17269 C        1835.2572  260.3208    4.6872 C.3    2878        0    0.0000
  17270 C        1835.5616  261.1891    3.4615 C.3    2878        0    0.0000
  17271 H        1835.7863  260.7110    5.5654 H      2878        0    0.0000
  17272 H        1835.6248  259.2999    4.5257 H      2878        0    0.0000
  17273 H        1835.0890  262.1732    3.5709 H      2878        0    0.0000
  17274 H        1836.6417  261.3653    3.3841 H      2878        0    0.0000
  17275 C        1835.0599  260.5330    2.1293 C.3    2879        0    0.0000
  17276 C        1836.1044  260.6178    1.0106 C.3    2879        0    0.0000
  17277 H        1834.8040  259.4845    2.3260 H      2879        0    0.0000
  17278 H        1834.1332  261.0303    1.8172 H      2879        0    0.0000
  17279 H        1835.7194  260.1424    0.1000 H      2879        0    0.0000
  17280 H        1836.3016  261.6672    0.7591 H      2879        0    0.0000
  17281 C        1837.4563  259.9304    1.4067 C.3    2880        0    0.0000
  17282 C        1838.6296  260.4205    0.5512 C.3    2880        0    0.0000
  17283 H        1837.6559  260.1277    2.4674 H      2880        0    0.0000
  17284 H        1837.3440  258.8440    1.3041 H      2880        0    0.0000
  17285 H        1838.6624  259.8665   -0.3952 H      2880        0    0.0000
  17286 H        1838.4908  261.4776    0.2926 H      2880        0    0.0000
  17287 C        1840.0071  260.2555    1.2813 C.3    2881        0    0.0000
  17288 C        1840.5356  261.5847    1.8319 C.3    2881        0    0.0000
  17289 H        1839.8905  259.5304    2.0964 H      2881        0    0.0000
  17290 H        1840.7307  259.8253    0.5780 H      2881        0    0.0000
  17291 H        1840.8428  262.2383    1.0061 H      2881        0    0.0000
  17292 H        1839.7388  262.1118    2.3712 H      2881        0    0.0000
  17293 C        1841.7537  261.3851    2.7983 C.3    2882        0    0.0000
  17294 C        1841.6558  262.2694    4.0464 C.3    2882        0    0.0000
  17295 H        1841.8048  260.3285    3.0891 H      2882        0    0.0000
  17296 H        1842.6786  261.6067    2.2518 H      2882        0    0.0000
  17297 H        1841.9407  263.2999    3.8005 H      2882        0    0.0000
  17298 H        1840.6184  262.3056    4.4014 H      2882        0    0.0000
  17299 C        1842.5709  261.7563    5.2112 C.3    2883        0    0.0000
  17300 C        1843.7227  262.7215    5.5130 C.3    2883        0    0.0000
  17301 H        1841.9552  261.6135    6.1078 H      2883        0    0.0000
  17302 H        1842.9677  260.7699    4.9410 H      2883        0    0.0000
  17303 H        1843.3300  263.6568    5.9308 H      2883        0    0.0000
  17304 H        1844.3854  262.2905    6.2735 H      2883        0    0.0000
  17305 C        1844.5686  263.0547    4.2358 C.3    2884        0    0.0000
  17306 C        1846.0758  263.0202    4.5120 C.3    2884        0    0.0000
  17307 H        1844.3143  262.3369    3.4461 H      2884        0    0.0000
  17308 H        1844.2762  264.0458    3.8667 H      2884        0    0.0000
  17309 H        1846.2965  263.5311    5.4575 H      2884        0    0.0000
  17310 H        1846.4133  261.9830    4.6280 H      2884        0    0.0000
  17311 C        1846.9054  263.6967    3.3666 C.3    2885        0    0.0000
  17312 C        1848.2577  263.0099    3.1455 C.3    2885        0    0.0000
  17313 H        1846.3159  263.6731    2.4417 H      2885        0    0.0000
  17314 H        1847.0569  264.7540    3.6168 H      2885        0    0.0000
  17315 H        1849.0353  263.7612    2.9601 H      2885        0    0.0000
  17316 H        1848.5553  262.4650    4.0501 H      2885        0    0.0000
  17317 C        1848.2252  262.0082    1.9401 C.3    2886        0    0.0000
  17318 C        1849.1245  260.7893    2.1732 C.3    2886        0    0.0000
  17319 H        1847.1895  261.6856    1.7761 H      2886        0    0.0000
  17320 H        1848.5374  262.5380    1.0315 H      2886        0    0.0000
  17321 H        1849.6935  260.5621    1.2630 H      2886        0    0.0000
  17322 H        1849.8597  261.0085    2.9573 H      2886        0    0.0000
  17323 C        1848.3066  259.5181    2.5883 C.3    2887        0    0.0000
  17324 C        1848.6741  259.0238    3.9918 C.3    2887        0    0.0000
  17325 H        1847.2366  259.7552    2.5413 H      2887        0    0.0000
  17326 H        1848.4865  258.7256    1.8515 H      2887        0    0.0000
  17327 H        1849.0690  258.0015    3.9391 H      2887        0    0.0000
  17328 H        1849.4713  259.6482    4.4138 H      2887        0    0.0000
  17329 C        1847.4479  259.0420    4.9681 C.3    2888        0    0.0000
  17330 C        1847.8719  259.2199    6.4302 C.3    2888        0    0.0000
  17331 H        1846.7714  259.8529    4.6713 H      2888        0    0.0000
  17332 H        1846.8881  258.1058    4.8503 H      2888        0    0.0000
  17333 H        1846.9873  259.3551    7.0647 H      2888        0    0.0000
  17334 H        1848.3805  258.3157    6.7869 H      2888        0    0.0000
  17335 C        1848.8270  260.4473    6.6267 C.3    2889        0    0.0000
  17336 C        1848.6235  261.1302    7.9838 C.3    2889        0    0.0000
  17337 H        1849.8652  260.1067    6.5289 H      2889        0    0.0000
  17338 H        1848.6530  261.1644    5.8150 H      2889        0    0.0000
  17339 H        1847.5585  261.3392    8.1438 H      2889        0    0.0000
  17340 H        1848.9381  260.4598    8.7931 H      2889        0    0.0000
  17341 C        1849.4248  262.4727    8.0995 C.3    2890        0    0.0000
  17342 C        1848.5952  263.6840    7.6595 C.3    2890        0    0.0000
  17343 H        1849.7540  262.5996    9.1382 H      2890        0    0.0000
  17344 H        1850.3325  262.3965    7.4883 H      2890        0    0.0000
  17345 H        1847.7378  263.3548    7.0595 H      2890        0    0.0000
  17346 H        1848.1859  264.1987    8.5378 H      2890        0    0.0000
  17347 C        1849.4362  264.7069    6.8205 C.3    2891        0    0.0000
  17348 C        1848.6483  265.9819    6.4999 C.3    2891        0    0.0000
  17349 H        1850.3467  264.9578    7.3784 H      2891        0    0.0000
  17350 H        1849.7595  264.2210    5.8916 H      2891        0    0.0000
  17351 H        1847.5717  265.7927    6.5946 H      2891        0    0.0000
  17352 H        1848.8947  266.7684    7.2239 H      2891        0    0.0000
  17353 C        1848.9427  266.5147    5.0552 C.3    2892        0    0.0000
  17354 C        1848.2789  267.8705    4.7898 C.3    2892        0    0.0000
  17355 H        1850.0287  266.5952    4.9226 H      2892        0    0.0000
  17356 H        1848.5902  265.7742    4.3266 H      2892        0    0.0000
  17357 H        1847.4557  268.0310    5.4967 H      2892        0    0.0000
  17358 H        1848.9995  268.6809    4.9557 H      2892        0    0.0000
  17359 C        1847.7200  267.9824    3.3295 C.3    2893        0    0.0000
  17360 C        1846.1884  268.0273    3.2957 C.3    2893        0    0.0000
  17361 H        1848.1332  268.8842    2.8608 H      2893        0    0.0000
  17362 H        1848.0842  267.1285    2.7450 H      2893        0    0.0000
  17363 H        1845.7747  267.2545    3.9556 H      2893        0    0.0000
  17364 H        1845.8317  268.9918    3.6779 H      2893        0    0.0000
  17365 C        1845.6194  267.8149    1.8504 C.3    2894        0    0.0000
  17366 C        1844.7924  266.5298    1.7348 C.3    2894        0    0.0000
  17367 H        1845.0051  268.6830    1.5812 H      2894        0    0.0000
  17368 H        1846.4563  267.7889    1.1414 H      2894        0    0.0000
  17369 H        1845.2250  265.7457    2.3686 H      2894        0    0.0000
  17370 H        1843.7732  266.7043    2.1010 H      2894        0    0.0000
  17371 C        1844.7163  266.0029    0.2603 C.3    2895        0    0.0000
  17372 C        1845.9301  265.1447   -0.1131 C.3    2895        0    0.0000
  17373 H        1843.7935  265.4221    0.1396 H      2895        0    0.0000
  17374 H        1844.6394  266.8615   -0.4184 H      2895        0    0.0000
  17375 H        1846.6921  265.7637   -0.6026 H      2895        0    0.0000
  17376 H        1846.3926  264.7330    0.7924 H      2895        0    0.0000
  17377 C        1845.5498  263.9617   -1.0689 C.3    2896        0    0.0000
  17378 C        1846.7772  263.3507   -1.7537 C.3    2896        0    0.0000
  17379 H        1845.0217  263.1945   -0.4891 H      2896        0    0.0000
  17380 H        1844.8425  264.3294   -1.8226 H      2896        0    0.0000
  17381 H        1847.1001  263.9885   -2.5858 H      2896        0    0.0000
  17382 H        1847.6167  263.3034   -1.0489 H      2896        0    0.0000
  17383 C        1846.4958  261.9091   -2.3016 C.3    2897        0    0.0000
  17384 C        1847.1337  260.8217   -1.4299 C.3    2897        0    0.0000
  17385 H        1845.4108  261.7578   -2.3577 H      2897        0    0.0000
  17386 H        1846.8770  261.8402   -3.3279 H      2897        0    0.0000
  17387 H        1847.5436  260.0248   -2.0627 H      2897        0    0.0000
  17388 H        1847.9756  261.2390   -0.8639 H      2897        0    0.0000
  17389 C        1846.1107  260.1915   -0.4230 C.3    2898        0    0.0000
  17390 C        1845.9385  258.6838   -0.6372 C.3    2898        0    0.0000
  17391 H        1846.4541  260.3892    0.6000 H      2898        0    0.0000
  17392 H        1845.1451  260.7001   -0.5350 H      2898        0    0.0000
  17393 H        1844.8795  258.4450   -0.7962 H      2898        0    0.0000
  17394 H        1846.4718  258.3691   -1.5429 H      2898        0    0.0000
  17395 C        1846.4683  257.8466    0.5776 C.3    2899        0    0.0000
  17396 C        1845.4597  256.7882    1.0376 C.3    2899        0    0.0000
  17397 H        1847.4127  257.3672    0.2916 H      2899        0    0.0000
  17398 H        1846.6995  258.5302    1.4040 H      2899        0    0.0000
  17399 H        1844.6467  256.7005    0.3063 H      2899        0    0.0000
  17400 H        1845.9437  255.8050    1.0899 H      2899        0    0.0000
  17401 C        1844.8441  257.1237    2.4397 C.3    2900        0    0.0000
  17402 C        1843.6981  256.1770    2.8126 C.3    2900        0    0.0000
  17403 H        1845.6371  257.0705    3.1960 H      2900        0    0.0000
  17404 H        1844.4872  258.1610    2.4301 H      2900        0    0.0000
  17405 H        1842.8469  256.3326    2.1381 H      2900        0    0.0000
  17406 H        1844.0145  255.1344    2.6849 H      2900        0    0.0000
  17407 C        1843.2156  256.3811    4.2901 C.3    2901        0    0.0000
  17408 C        1841.8184  257.0068    4.3638 C.3    2901        0    0.0000
  17409 H        1843.2203  255.4102    4.8009 H      2901        0    0.0000
  17410 H        1843.9406  257.0162    4.8143 H      2901        0    0.0000
  17411 H        1841.7523  257.8611    3.6788 H      2901        0    0.0000
  17412 H        1841.0636  256.2812    4.0362 H      2901        0    0.0000
  17413 C        1841.4597  257.4906    5.8111 C.3    2902        0    0.0000
  17414 C        1840.1293  258.2500    5.8566 C.3    2902        0    0.0000
  17415 H        1841.4180  256.6185    6.4752 H      2902        0    0.0000
  17416 H        1842.2705  258.1301    6.1813 H      2902        0    0.0000
  17417 H        1839.7805  258.4594    4.8377 H      2902        0    0.0000
  17418 H        1839.3585  257.6307    6.3322 H      2902        0    0.0000
  17419 C        1840.2440  259.6033    6.6394 C.3    2903        0    0.0000
  17420 C        1839.9628  259.4340    8.1365 C.3    2903        0    0.0000
  17421 H        1841.2502  260.0142    6.4898 H      2903        0    0.0000
  17422 H        1839.5413  260.3244    6.2039 H      2903        0    0.0000
  17423 H        1839.3740  260.2823    8.5071 H      2903        0    0.0000
  17424 H        1839.3594  258.5335    8.3064 H      2903        0    0.0000
  17425 C        1841.2798  259.3260    8.9800 C.3    2904        0    0.0000
  17426 C        1841.6558  260.6561    9.6425 C.3    2904        0    0.0000
  17427 H        1841.1481  258.5496    9.7436 H      2904        0    0.0000
  17428 H        1842.0927  258.9892    8.3248 H      2904        0    0.0000
  17429 H        1841.7633  261.4385    8.8810 H      2904        0    0.0000
  17430 H        1840.8535  260.9807   10.3166 H      2904        0    0.0000
  17431 C        1842.9915  260.5572   10.4573 C.3    2905        0    0.0000
  17432 C        1844.0374  261.5726    9.9837 C.3    2905        0    0.0000
  17433 H        1842.7694  260.7137   11.5203 H      2905        0    0.0000
  17434 H        1843.3873  259.5383   10.3649 H      2905        0    0.0000
  17435 H        1843.8813  261.8061    8.9232 H      2905        0    0.0000
  17436 H        1843.9231  262.5147   10.5340 H      2905        0    0.0000
  17437 C        1845.5026  261.0496   10.1759 C.3    2906        0    0.0000
  17438 C        1846.1782  261.6552   11.4112 C.3    2906        0    0.0000
  17439 H        1845.4797  259.9558   10.2579 H      2906        0    0.0000
  17440 H        1846.0833  261.2859    9.2756 H      2906        0    0.0000
  17441 H        1845.4197  262.0379   12.1051 H      2906        0    0.0000
  17442 H        1846.7375  260.8814   11.9513 H      2906        0    0.0000
  17443 C        1847.1583  262.8210   11.0405 C.3    2907        0    0.0000
  17444 C        1847.9408  263.3307   12.2559 C.3    2907        0    0.0000
  17445 H        1847.8522  262.4677   10.2677 H      2907        0    0.0000
  17446 H        1846.5807  263.6403   10.5947 H      2907        0    0.0000
  17447 H        1847.3784  264.1276   12.7582 H      2907        0    0.0000
  17448 H        1848.0656  262.5234   12.9884 H      2907        0    0.0000
  17449 C        1849.3556  263.8804   11.8639 C.3    2908        0    0.0000
  17450 C        1849.6123  265.2808   12.4314 C.3    2908        0    0.0000
  17451 H        1850.1195  263.1816   12.2269 H      2908        0    0.0000
  17452 H        1849.4379  263.8969   10.7701 H      2908        0    0.0000
  17453 H        1849.0220  265.4310   13.3438 H      2908        0    0.0000
  17454 H        1850.6664  265.3833   12.7177 H      2908        0    0.0000
  17455 C        1849.2548  266.4118   11.4065 C.3    2909        0    0.0000
  17456 C        1850.0928  267.6769   11.6217 C.3    2909        0    0.0000
  17457 H        1849.4064  266.0286   10.3897 H      2909        0    0.0000
  17458 H        1848.1874  266.6476   11.4984 H      2909        0    0.0000
  17459 H        1849.4990  268.4369   12.1447 H      2909        0    0.0000
  17460 H        1850.9537  267.4530   12.2636 H      2909        0    0.0000
  17461 C        1850.6127  268.2820   10.2723 C.3    2910        0    0.0000
  17462 C        1852.1309  268.1391   10.1182 C.3    2910        0    0.0000
  17463 H        1850.1014  267.7818    9.4404 H      2910        0    0.0000
  17464 H        1850.3279  269.3404   10.2264 H      2910        0    0.0000
  17465 H        1852.6300  268.3910   11.0620 H      2910        0    0.0000
  17466 H        1852.3896  267.0971    9.8932 H      2910        0    0.0000
  17467 C        1852.7020  269.0579    8.9837 C.3    2911        0    0.0000
  17468 C        1853.2173  268.2508    7.7870 C.3    2911        0    0.0000
  17469 H        1851.9152  269.7502    8.6596 H      2911        0    0.0000
  17470 H        1853.5105  269.6719    9.3994 H      2911        0    0.0000
  17471 H        1854.1407  267.7243    8.0578 H      2911        0    0.0000
  17472 H        1852.4861  267.4815    7.5093 H      2911        0    0.0000
  17473 C        1853.4987  269.1547    6.5376 C.3    2912        0    0.0000
  17474 C        1853.4663  268.3607    5.2270 C.3    2912        0    0.0000
  17475 H        1852.7537  269.9594    6.5083 H      2912        0    0.0000
  17476 H        1854.4768  269.6354    6.6620 H      2912        0    0.0000
  17477 H        1852.4613  268.3986    4.7889 H      2912        0    0.0000
  17478 H        1854.1461  268.8148    4.4953 H      2912        0    0.0000
  17479 C        1853.8726  266.8605    5.4309 C.3    2913        0    0.0000
  17480 C        1853.8556  266.0704    4.1176 C.3    2913        0    0.0000
  17481 H        1854.8730  266.8229    5.8794 H      2913        0    0.0000
  17482 H        1853.1857  266.4033    6.1538 H      2913        0    0.0000
  17483 H        1852.8475  266.0820    3.6848 H      2913        0    0.0000
  17484 H        1854.5188  266.5455    3.3842 H      2913        0    0.0000
  17485 C        1854.3038  264.5812    4.3144 C.3    2914        0    0.0000
  17486 C        1854.7269  263.9230    2.9965 C.3    2914        0    0.0000
  17487 H        1855.1332  264.5535    5.0319 H      2914        0    0.0000
  17488 H        1853.4769  264.0198    4.7666 H      2914        0    0.0000
  17489 H        1853.8458  263.7317    2.3716 H      2914        0    0.0000
  17490 H        1855.3750  264.6018    2.4281 H      2914        0    0.0000
  17491 C        1855.4877  262.5715    3.2248 C.3    2915        0    0.0000
  17492 C        1854.8872  261.4219    2.4082 C.3    2915        0    0.0000
  17493 H        1856.5430  262.7104    2.9592 H      2915        0    0.0000
  17494 H        1855.4613  262.3272    4.2940 H      2915        0    0.0000
  17495 H        1855.5326  260.5370    2.4734 H      2915        0    0.0000
  17496 H        1853.9139  261.1331    2.8243 H      2915        0    0.0000
  17497 C        1854.6993  261.8001    0.8987 C.3    2916        0    0.0000
  17498 C        1855.4628  260.8557   -0.0363 C.3    2916        0    0.0000
  17499 H        1853.6287  261.7812    0.6600 H      2916        0    0.0000
  17500 H        1855.0375  262.8328    0.7481 H      2916        0    0.0000
  17501 H        1855.5726  259.8699    0.4327 H      2916        0    0.0000
  17502 H        1854.8947  260.7024   -0.9621 H      2916        0    0.0000
  17503 C        1856.8857  261.4029   -0.4013 C.3    2917        0    0.0000
  17504 C        1858.0070  260.5853    0.2496 C.3    2917        0    0.0000
  17505 H        1856.9987  261.3942   -1.4925 H      2917        0    0.0000
  17506 H        1856.9530  262.4514   -0.0859 H      2917        0    0.0000
  17507 H        1857.6143  260.0234    1.1062 H      2917        0    0.0000
  17508 H        1858.3945  259.8454   -0.4616 H      2917        0    0.0000
  17509 C        1859.1931  261.4868    0.7376 C.3    2918        0    0.0000
  17510 C        1859.6002  261.1788    2.1828 C.3    2918        0    0.0000
  17511 H        1860.0485  261.3396    0.0664 H      2918        0    0.0000
  17512 H        1858.8981  262.5394    0.6459 H      2918        0    0.0000
  17513 H        1858.7784  260.6738    2.7055 H      2918        0    0.0000
  17514 H        1860.4524  260.4881    2.1944 H      2918        0    0.0000
  17515 C        1859.9871  262.4723    2.9794 C.3    2919        0    0.0000
  17516 C        1861.5012  262.7087    3.0035 C.3    2919        0    0.0000
  17517 H        1859.4791  263.3322    2.5255 H      2919        0    0.0000
  17518 H        1859.6036  262.3847    4.0036 H      2919        0    0.0000
  17519 H        1862.0016  261.8878    3.5321 H      2919        0    0.0000
  17520 H        1861.8977  262.7126    1.9805 H      2919        0    0.0000
  17521 C        1861.8801  264.0622    3.6976 C.3    2920        0    0.0000
  17522 C        1862.6991  264.9764    2.7796 C.3    2920        0    0.0000
  17523 H        1860.9589  264.5698    4.0093 H      2920        0    0.0000
  17524 H        1862.4449  263.8444    4.6124 H      2920        0    0.0000
  17525 H        1862.3053  264.9326    1.7565 H      2920        0    0.0000
  17526 H        1862.6073  266.0192    3.1080 H      2920        0    0.0000
  17527 C        1864.2173  264.5866    2.7539 C.3    2921        0    0.0000
  17528 C        1865.0880  265.6829    2.1300 C.3    2921        0    0.0000
  17529 H        1864.5475  264.3825    3.7800 H      2921        0    0.0000
  17530 H        1864.3325  263.6505    2.1937 H      2921        0    0.0000
  17531 H        1864.5377  266.1884    1.3267 H      2921        0    0.0000
  17532 H        1865.3242  266.4480    2.8799 H      2921        0    0.0000
  17533 C        1866.4281  265.1169    1.5460 C.3    2922        0    0.0000
  17534 C        1867.4071  264.6915    2.6459 C.3    2922        0    0.0000
  17535 H        1866.1981  264.2633    0.8964 H      2922        0    0.0000
  17536 H        1866.8876  265.8828    0.9091 H      2922        0    0.0000
  17537 H        1868.3910  264.4760    2.2109 H      2922        0    0.0000
  17538 H        1867.5509  265.5121    3.3595 H      2922        0    0.0000
  17539 C        1866.9110  263.4250    3.4254 C.3    2923        0    0.0000
  17540 C        1868.0592  262.4725    3.7769 C.3    2923        0    0.0000
  17541 H        1866.3990  263.7505    4.3395 H      2923        0    0.0000
  17542 H        1866.1636  262.9039    2.8144 H      2923        0    0.0000
  17543 H        1868.9246  263.0432    4.1363 H      2923        0    0.0000
  17544 H        1867.7587  261.8070    4.5956 H      2923        0    0.0000
  17545 C        1868.5027  261.5992    2.5529 C.3    2924        0    0.0000
  17546 C        1870.0027  261.2859    2.5759 C.3    2924        0    0.0000
  17547 H        1867.9237  260.6674    2.5550 H      2924        0    0.0000
  17548 H        1868.2433  262.1291    1.6279 H      2924        0    0.0000
  17549 H        1870.3978  261.4120    3.5915 H      2924        0    0.0000
  17550 H        1870.1722  260.2377    2.2999 H      2924        0    0.0000
  17551 C        1870.8165  262.2035    1.5996 C.3    2925        0    0.0000
  17552 C        1872.0952  262.7488    2.2453 C.3    2925        0    0.0000
  17553 H        1871.0656  261.6287    0.6990 H      2925        0    0.0000
  17554 H        1870.1750  263.0329    1.2767 H      2925        0    0.0000
  17555 H        1871.8409  263.4525    3.0475 H      2925        0    0.0000
  17556 H        1872.6597  261.9312    2.7106 H      2925        0    0.0000
  17557 C        1873.0203  263.4761    1.2096 C.3    2926        0    0.0000
  17558 C        1873.6229  264.7669    1.7750 C.3    2926        0    0.0000
  17559 H        1873.8198  262.7891    0.9061 H      2926        0    0.0000
  17560 H        1872.4358  263.6973    0.3078 H      2926        0    0.0000
  17561 H        1874.4547  265.1020    1.1430 H      2926        0    0.0000
  17562 H        1872.8745  265.5688    1.7616 H      2926        0    0.0000
  17563 C        1874.1440  264.5865    3.2423 C.3    2927        0    0.0000
  17564 C        1874.5363  265.9201    3.8876 C.3    2927        0    0.0000
  17565 H        1873.3633  264.0960    3.8370 H      2927        0    0.0000
  17566 H        1875.0049  263.9067    3.2307 H      2927        0    0.0000
  17567 H        1874.1128  266.7542    3.3146 H      2927        0    0.0000
  17568 H        1874.1156  265.9869    4.8987 H      2927        0    0.0000
  17569 C        1876.0906  266.1040    3.9740 C.3    2928        0    0.0000
  17570 C        1876.5839  267.2836    3.1288 C.3    2928        0    0.0000
  17571 H        1876.3715  266.2505    5.0243 H      2928        0    0.0000
  17572 H        1876.5753  265.1766    3.6447 H      2928        0    0.0000
  17573 H        1876.4763  267.0527    2.0616 H      2928        0    0.0000
  17574 H        1875.9667  268.1696    3.3230 H      2928        0    0.0000
  17575 C        1878.0828  267.6379    3.4205 C.3    2929        0    0.0000
  17576 C        1879.0211  267.1534    2.3097 C.3    2929        0    0.0000
  17577 H        1878.1724  268.7247    3.5411 H      2929        0    0.0000
  17578 H        1878.3718  267.1898    4.3793 H      2929        0    0.0000
  17579 H        1878.4614  267.0224    1.3752 H      2929        0    0.0000
  17580 H        1879.7916  267.9089    2.1122 H      2929        0    0.0000
  17581 C        1879.7223  265.7992    2.6729 C.3    2930        0    0.0000
  17582 C        1879.7649  264.8306    1.4858 C.3    2930        0    0.0000
  17583 H        1880.7404  266.0107    3.0224 H      2930        0    0.0000
  17584 H        1879.1893  265.3395    3.5145 H      2930        0    0.0000
  17585 H        1878.8826  264.9755    0.8502 H      2930        0    0.0000
  17586 H        1880.6416  265.0403    0.8604 H      2930        0    0.0000
  17587 C        1879.8173  263.3321    1.9434 C.3    2931        0    0.0000
  17588 C        1878.6453  262.5143    1.3898 C.3    2931        0    0.0000
  17589 H        1880.7688  262.8952    1.6155 H      2931        0    0.0000
  17590 H        1879.8158  263.2969    3.0399 H      2931        0    0.0000
  17591 H        1878.7686  261.4558    1.6509 H      2931        0    0.0000
  17592 H        1877.7056  262.8446    1.8497 H      2931        0    0.0000
  17593 C        1878.5168  262.6389   -0.1675 C.3    2932        0    0.0000
  17594 C        1877.0569  262.7314   -0.6245 C.3    2932        0    0.0000
  17595 H        1879.0714  263.5259   -0.4982 H      2932        0    0.0000
  17596 H        1879.0024  261.7722   -0.6328 H      2932        0    0.0000
  17597 H        1876.6583  261.7274   -0.8162 H      2932        0    0.0000
  17598 H        1876.4407  263.1683    0.1711 H      2932        0    0.0000
  17599 C        1876.8939  263.5959   -1.9220 C.3    2933        0    0.0000
  17600 C        1876.3479  264.9963   -1.6222 C.3    2933        0    0.0000
  17601 H        1877.8678  263.6708   -2.4216 H      2933        0    0.0000
  17602 H        1876.2241  263.0713   -2.6146 H      2933        0    0.0000
  17603 H        1875.9176  265.4347   -2.5312 H      2933        0    0.0000
  17604 H        1875.5358  264.9339   -0.8873 H      2933        0    0.0000
  17605 C        1877.4548  265.9601   -1.0714 C.3    2934        0    0.0000
  17606 C        1877.8417  267.0409   -2.0869 C.3    2934        0    0.0000
  17607 H        1877.0903  266.4256   -0.1472 H      2934        0    0.0000
  17608 H        1878.3365  265.3669   -0.7990 H      2934        0    0.0000
  17609 H        1878.0715  266.5813   -3.0561 H      2934        0    0.0000
  17610 H        1876.9967  267.7206   -2.2531 H      2934        0    0.0000
  17611 C        1879.0806  267.8799   -1.6189 C.3    2935        0    0.0000
  17612 C        1878.9568  269.3596   -1.9984 C.3    2935        0    0.0000
  17613 H        1879.1863  267.7778   -0.5317 H      2935        0    0.0000
  17614 H        1879.9866  267.4515   -2.0651 H      2935        0    0.0000
  17615 H        1879.4388  269.5412   -2.9670 H      2935        0    0.0000
  17616 H        1877.9003  269.6305   -2.1167 H      2935        0    0.0000
  17617 C        1879.6038  270.3037   -0.9272 C.3    2936        0    0.0000
  17618 C        1881.1355  270.2694   -0.9721 C.3    2936        0    0.0000
  17619 H        1879.2454  271.3269   -1.0950 H      2936        0    0.0000
  17620 H        1879.2499  270.0049    0.0672 H      2936        0    0.0000
  17621 H        1881.4771  269.3447   -1.4534 H      2936        0    0.0000
  17622 H        1881.5126  271.0998   -1.5819 H      2936        0    0.0000
  17623 C        1881.7739  270.3610    0.4567 C.3    2937        0    0.0000
  17624 C        1882.9261  269.3676    0.6428 C.3    2937        0    0.0000
  17625 H        1882.1306  271.3856    0.6196 H      2937        0    0.0000
  17626 H        1880.9934  270.1764    1.2052 H      2937        0    0.0000
  17627 H        1882.5299  268.3702    0.8700 H      2937        0    0.0000
  17628 H        1883.4971  269.2749   -0.2894 H      2937        0    0.0000
  17629 C        1883.9015  269.7976    1.7922 C.3    2938        0    0.0000
  17630 C        1884.7323  268.6226    2.3192 C.3    2938        0    0.0000
  17631 H        1884.5635  270.5880    1.4170 H      2938        0    0.0000
  17632 H        1883.3146  270.2389    2.6074 H      2938        0    0.0000
  17633 H        1885.7197  268.9750    2.6423 H      2938        0    0.0000
  17634 H        1884.2491  268.1864    3.2025 H      2938        0    0.0000
  17635 C        1884.9241  267.4999    1.2420 C.3    2939        0    0.0000
  17636 C        1885.2642  266.1440    1.8706 C.3    2939        0    0.0000
  17637 H        1884.0054  267.4194    0.6479 H      2939        0    0.0000
  17638 H        1885.7201  267.8047    0.5515 H      2939        0    0.0000
  17639 H        1884.9554  266.1292    2.9230 H      2939        0    0.0000
  17640 H        1884.7056  265.3454    1.3670 H      2939        0    0.0000
  17641 C        1886.7954  265.8186    1.7884 C.3    2940        0    0.0000
  17642 C        1887.4851  265.9209    3.1533 C.3    2940        0    0.0000
  17643 H        1886.9208  264.8087    1.3785 H      2940        0    0.0000
  17644 H        1887.2659  266.5081    1.0766 H      2940        0    0.0000
  17645 H        1886.9116  266.5810    3.8159 H      2940        0    0.0000
  17646 H        1887.5118  264.9360    3.6361 H      2940        0    0.0000
  17647 C        1888.9498  266.4679    3.0395 C.3    2941        0    0.0000
  17648 C        1889.9780  265.3438    2.8705 C.3    2941        0    0.0000
  17649 H        1889.0043  267.1585    2.1889 H      2941        0    0.0000
  17650 H        1889.1787  267.0551    3.9374 H      2941        0    0.0000
  17651 H        1890.0249  264.7368    3.7830 H      2941        0    0.0000
  17652 H        1889.6704  264.6714    2.0601 H      2941        0    0.0000
  17653 C        1891.4120  265.8931    2.5545 C.3    2942        0    0.0000
  17654 C        1891.8346  265.6154    1.1076 C.3    2942        0    0.0000
  17655 H        1891.4283  266.9723    2.7506 H      2942        0    0.0000
  17656 H        1892.1270  265.4357    3.2496 H      2942        0    0.0000
  17657 H        1892.9165  265.4398    1.0589 H      2942        0    0.0000
  17658 H        1891.3505  264.7008    0.7433 H      2942        0    0.0000
  17659 C        1891.4708  266.7978    0.1451 C.3    2943        0    0.0000
  17660 C        1890.6833  266.3264   -1.0824 C.3    2943        0    0.0000
  17661 H        1890.8882  267.5414    0.7029 H      2943        0    0.0000
  17662 H        1892.3966  267.2949   -0.1700 H      2943        0    0.0000
  17663 H        1890.9606  265.2951   -1.3339 H      2943        0    0.0000
  17664 H        1889.6091  266.3184   -0.8599 H      2943        0    0.0000
  17665 C        1890.9335  267.2363   -2.3342 C.3    2944        0    0.0000
  17666 C        1889.8872  268.3490   -2.4618 C.3    2944        0    0.0000
  17667 H        1891.9377  267.6711   -2.2603 H      2944        0    0.0000
  17668 H        1890.9271  266.6091   -3.2342 H      2944        0    0.0000
  17669 H        1890.1964  269.0699   -3.2287 H      2944        0    0.0000
  17670 H        1888.9293  267.9286   -2.7924 H      2944        0    0.0000
  17671 C        1889.6643  269.1127   -1.1111 C.3    2945        0    0.0000
  17672 C        1890.5192  270.3810   -1.0130 C.3    2945        0    0.0000
  17673 H        1888.6012  269.3677   -1.0203 H      2945        0    0.0000
  17674 H        1889.8982  268.4362   -0.2796 H      2945        0    0.0000
  17675 H        1890.8341  270.7007   -2.0141 H      2945        0    0.0000
  17676 H        1889.9264  271.2025   -0.5919 H      2945        0    0.0000
  17677 C        1891.7941  270.1711   -0.1253 C.3    2946        0    0.0000
  17678 C        1891.9948  271.3094    0.8813 C.3    2946        0    0.0000
  17679 H        1891.7036  269.2137    0.4026 H      2946        0    0.0000
  17680 H        1892.6709  270.0886   -0.7795 H      2946        0    0.0000
  17681 H        1892.8810  271.8973    0.6126 H      2946        0    0.0000
  17682 H        1891.1394  271.9958    0.8484 H      2946        0    0.0000
  17683 C        1892.1637  270.7825    2.3480 C.3    2947        0    0.0000
  17684 C        1893.6355  270.6883    2.7655 C.3    2947        0    0.0000
  17685 H        1891.6217  271.4508    3.0285 H      2947        0    0.0000
  17686 H        1891.6865  269.7978    2.4272 H      2947        0    0.0000
  17687 H        1894.1639  271.6096    2.4907 H      2947        0    0.0000
  17688 H        1893.7120  270.5945    3.8559 H      2947        0    0.0000
  17689 C        1894.3647  269.4700    2.1010 C.3    2948        0    0.0000
  17690 C        1895.5031  268.9284    2.9728 C.3    2948        0    0.0000
  17691 H        1893.6289  268.6793    1.9091 H      2948        0    0.0000
  17692 H        1894.7548  269.7814    1.1239 H      2948        0    0.0000
  17693 H        1896.3569  269.6166    2.9466 H      2948        0    0.0000
  17694 H        1895.1792  268.8678    4.0193 H      2948        0    0.0000
  17695 C        1895.9830  267.5099    2.5093 C.3    2949        0    0.0000
  17696 C        1897.4834  267.4771    2.1984 C.3    2949        0    0.0000
  17697 H        1895.7457  266.7820    3.2952 H      2949        0    0.0000
  17698 H        1895.4086  267.2146    1.6225 H      2949        0    0.0000
  17699 H        1897.8508  268.4936    2.0104 H      2949        0    0.0000
  17700 H        1898.0387  267.0966    3.0645 H      2949        0    0.0000
  17701 C        1897.8129  266.5826    0.9540 C.3    2950        0    0.0000
  17702 C        1898.7844  267.2679   -0.0132 C.3    2950        0    0.0000
  17703 H        1898.2373  265.6331    1.3035 H      2950        0    0.0000
  17704 H        1896.8770  266.3377    0.4367 H      2950        0    0.0000
  17705 H        1899.0316  266.5910   -0.8405 H      2950        0    0.0000
  17706 H        1898.3107  268.1510   -0.4595 H      2950        0    0.0000
  17707 C        1900.1128  267.7094    0.6925 C.3    2951        0    0.0000
  17708 C        1901.3354  267.5481   -0.2176 C.3    2951        0    0.0000
  17709 H        1900.0144  268.7553    1.0086 H      2951        0    0.0000
  17710 H        1900.2426  267.1152    1.6056 H      2951        0    0.0000
  17711 H        1901.4960  266.4876   -0.4474 H      2951        0    0.0000
  17712 H        1901.1611  268.0549   -1.1749 H      2951        0    0.0000
  17713 C        1902.6395  268.1278    0.4310 C.3    2952        0    0.0000
  17714 C        1903.4575  267.0511    1.1526 C.3    2952        0    0.0000
  17715 H        1903.2455  268.5980   -0.3533 H      2952        0    0.0000
  17716 H        1902.3616  268.9230    1.1337 H      2952        0    0.0000
  17717 H        1903.2294  267.0616    2.2257 H      2952        0    0.0000
  17718 H        1903.1805  266.0565    0.7815 H      2952        0    0.0000
  17719 C        1905.0007  267.2500    0.9620 C.3    2953        0    0.0000
  17720 C        1905.7201  267.5181    2.2885 C.3    2953        0    0.0000
  17721 H        1905.4161  266.3547    0.4830 H      2953        0    0.0000
  17722 H        1905.1669  268.0839    0.2687 H      2953        0    0.0000
  17723 H        1905.4736  268.5227    2.6537 H      2953        0    0.0000
  17724 H        1905.3746  266.8114    3.0533 H      2953        0    0.0000
  17725 C        1907.2775  267.3969    2.1550 C.3    2954        0    0.0000
  17726 C        1907.9613  268.7659    2.0681 C.3    2954        0    0.0000
  17727 H        1907.6637  266.8375    3.0159 H      2954        0    0.0000
  17728 H        1907.5105  266.8027    1.2627 H      2954        0    0.0000
  17729 H        1907.3000  269.5428    2.4715 H      2954        0    0.0000
  17730 H        1908.8684  268.7729    2.6850 H      2954        0    0.0000
  17731 C        1908.3475  269.1448    0.5969 C.3    2955        0    0.0000
  17732 C        1909.3700  270.2851    0.5401 C.3    2955        0    0.0000
  17733 H        1908.7484  268.2547    0.0963 H      2955        0    0.0000
  17734 H        1907.4373  269.4284    0.0542 H      2955        0    0.0000
  17735 H        1909.4519  270.6661   -0.4854 H      2955        0    0.0000
  17736 H        1909.0330  271.1239    1.1618 H      2955        0    0.0000
  17737 C        1910.7903  269.8342    1.0267 C.3    2956        0    0.0000
  17738 C        1911.8527  270.9152    0.7986 C.3    2956        0    0.0000
  17739 H        1910.7347  269.5806    2.0926 H      2956        0    0.0000
  17740 H        1911.0698  268.9146    0.4980 H      2956        0    0.0000
  17741 H        1912.0056  271.0713   -0.2765 H      2956        0    0.0000
  17742 H        1911.5098  271.8726    1.2102 H      2956        0    0.0000
  17743 C        1913.2271  270.5457    1.4560 C.3    2957        0    0.0000
  17744 C        1914.2806  270.1494    0.4158 C.3    2957        0    0.0000
  17745 H        1913.5806  271.4031    2.0418 H      2957        0    0.0000
  17746 H        1913.0701  269.7231    2.1647 H      2957        0    0.0000
  17747 H        1914.2325  269.0701    0.2241 H      2957        0    0.0000
  17748 H        1914.0730  270.6484   -0.5388 H      2957        0    0.0000
  17749 C        1915.7344  270.5174    0.8727 C.3    2958        0    0.0000
  17750 C        1916.7537  269.4377    0.4926 C.3    2958        0    0.0000
  17751 H        1916.0154  271.4762    0.4195 H      2958        0    0.0000
  17752 H        1915.7355  270.6701    1.9590 H      2958        0    0.0000
  17753 H        1916.7614  268.6443    1.2502 H      2958        0    0.0000
  17754 H        1916.4658  268.9657   -0.4550 H      2958        0    0.0000
  17755 C        1918.2045  270.0141    0.3500 C.3    2959        0    0.0000
  17756 C        1919.1282  269.5486    1.4810 C.3    2959        0    0.0000
  17757 H        1918.6133  269.7064   -0.6203 H      2959        0    0.0000
  17758 H        1918.1497  271.1096    0.3359 H      2959        0    0.0000
  17759 H        1918.6285  268.7786    2.0819 H      2959        0    0.0000
  17760 H        1920.0308  269.0857    1.0631 H      2959        0    0.0000
  17761 C        1919.5544  270.7268    2.4229 C.3    2960        0    0.0000
  17762 C        1921.0758  270.9048    2.4782 C.3    2960        0    0.0000
  17763 H        1919.0802  271.6508    2.0699 H      2960        0    0.0000
  17764 H        1919.1613  270.5352    3.4289 H      2960        0    0.0000
  17765 H        1921.3290  271.7986    3.0617 H      2960        0    0.0000
  17766 H        1921.5359  270.0520    2.9924 H      2960        0    0.0000
  17767 C        1921.7108  271.0366    1.0509 C.3    2961        0    0.0000
  17768 C        1923.2410  270.9572    1.0864 C.3    2961        0    0.0000
  17769 H        1921.3077  270.2428    0.4099 H      2961        0    0.0000
  17770 H        1921.3937  271.9895    0.6095 H      2961        0    0.0000
  17771 H        1923.6537  271.8585    1.5564 H      2961        0    0.0000
  17772 H        1923.5594  270.1068    1.7022 H      2961        0    0.0000
  17773 C        1923.8613  270.8046   -0.3452 C.3    2962        0    0.0000
  17774 C        1925.2955  270.2654   -0.3022 C.3    2962        0    0.0000
  17775 H        1923.2252  270.1345   -0.9366 H      2962        0    0.0000
  17776 H        1923.8413  271.7809   -0.8452 H      2962        0    0.0000
  17777 H        1925.3262  269.3225    0.2576 H      2962        0    0.0000
  17778 H        1925.6433  270.0403   -1.3180 H      2962        0    0.0000
  17779 C        1926.2915  271.2788    0.3600 C.3    2963        0    0.0000
  17780 C        1927.6093  270.6131    0.7718 C.3    2963        0    0.0000
  17781 H        1926.4872  272.0950   -0.3463 H      2963        0    0.0000
  17782 H        1925.8076  271.7290    1.2358 H      2963        0    0.0000
  17783 H        1927.4124  269.7871    1.4665 H      2963        0    0.0000
  17784 H        1928.1002  270.1758   -0.1064 H      2963        0    0.0000
  17785 C        1928.5969  271.6218    1.4532 C.3    2964        0    0.0000
  17786 C        1930.0559  271.1631    1.3538 C.3    2964        0    0.0000
  17787 H        1928.4789  272.6054    0.9819 H      2964        0    0.0000
  17788 H        1928.3109  271.7404    2.5057 H      2964        0    0.0000
  17789 H        1930.2667  270.4099    2.1231 H      2964        0    0.0000
  17790 H        1930.2335  270.6812    0.3842 H      2964        0    0.0000
  17791 C        1931.0649  272.3513    1.5199 C.3    2965        0    0.0000
  17792 C        1932.5243  271.8873    1.4555 C.3    2965        0    0.0000
  17793 H        1930.8708  273.0924    0.7347 H      2965        0    0.0000
  17794 H        1930.8705  272.8490    2.4780 H      2965        0    0.0000
  17795 H        1932.6609  270.9885    2.0696 H      2965        0    0.0000
  17796 H        1932.7854  271.6086    0.4270 H      2965        0    0.0000
  17797 C        1933.5211  272.9922    1.9482 C.3    2966        0    0.0000
  17798 C        1934.9802  272.6367    1.6418 C.3    2966        0    0.0000
  17799 H        1933.2578  273.9444    1.4711 H      2966        0    0.0000
  17800 H        1933.3871  273.1333    3.0280 H      2966        0    0.0000
  17801 H        1935.6517  273.2096    2.2932 H      2966        0    0.0000
  17802 H        1935.1619  271.5764    1.8562 H      2966        0    0.0000
  17803 C        1935.3602  272.9223    0.1479 C.3    2967        0    0.0000
  17804 C        1936.8644  272.7750   -0.1070 C.3    2967        0    0.0000
  17805 H        1934.8000  272.2341   -0.4972 H      2967        0    0.0000
  17806 H        1935.0319  273.9361   -0.1128 H      2967        0    0.0000
  17807 H        1937.1904  273.4998   -0.8633 H      2967        0    0.0000
  17808 H        1937.4250  273.0010    0.8084 H      2967        0    0.0000
  17809 C        1937.2465  271.3336   -0.5907 C.3    2968        0    0.0000
  17810 C        1938.6686  270.9397   -0.1765 C.3    2968        0    0.0000
  17811 H        1936.5231  270.6190   -0.1787 H      2968        0    0.0000
  17812 H        1937.1466  271.2888   -1.6823 H      2968        0    0.0000
  17813 H        1938.6591  270.4977    0.8275 H      2968        0    0.0000
  17814 H        1939.0588  270.1711   -0.8553 H      2968        0    0.0000
  17815 C        1939.6490  272.1628   -0.1811 C.3    2969        0    0.0000
  17816 C        1940.8875  271.9178    0.6879 C.3    2969        0    0.0000
  17817 H        1939.9502  272.3707   -1.2153 H      2969        0    0.0000
  17818 H        1939.1096  273.0496    0.1743 H      2969        0    0.0000
  17819 H        1940.7303  272.3311    1.6919 H      2969        0    0.0000
  17820 H        1941.0519  270.8404    0.8130 H      2969        0    0.0000
  17821 C        1942.1801  272.5583    0.0742 C.3    2970        0    0.0000
  17822 C        1943.4219  272.2973    0.9339 C.3    2970        0    0.0000
  17823 H        1942.3295  272.1551   -0.9349 H      2970        0    0.0000
  17824 H        1942.0205  273.6379   -0.0382 H      2970        0    0.0000
  17825 H        1943.3245  272.8073    1.9002 H      2970        0    0.0000
  17826 H        1943.5106  271.2255    1.1508 H      2970        0    0.0000
  17827 C        1944.7395  272.7825    0.2369 C.3    2971        0    0.0000
  17828 C        1945.9952  272.3395    0.9959 C.3    2971        0    0.0000
  17829 H        1944.7621  272.3918   -0.7879 H      2971        0    0.0000
  17830 H        1944.7150  273.8764    0.1565 H      2971        0    0.0000
  17831 H        1946.1216  272.9470    1.9008 H      2971        0    0.0000
  17832 H        1945.8871  271.2993    1.3274 H      2971        0    0.0000
  17833 C        1947.2910  272.4590    0.1218 C.3    2972        0    0.0000
  17834 C        1948.5098  272.8893    0.9457 C.3    2972        0    0.0000
  17835 H        1947.4840  271.4918   -0.3584 H      2972        0    0.0000
  17836 H        1947.1083  273.1803   -0.6843 H      2972        0    0.0000
  17837 H        1948.2659  273.7764    1.5430 H      2972        0    0.0000
  17838 H        1948.7832  272.0977    1.6542 H      2972        0    0.0000
  17839 C        1949.7515  273.2124    0.0451 C.3    2973        0    0.0000
  17840 C        1951.0741  273.0715    0.8067 C.3    2973        0    0.0000
  17841 H        1949.7435  272.5406   -0.8223 H      2973        0    0.0000
  17842 H        1949.6492  274.2324   -0.3456 H      2973        0    0.0000
  17843 H        1951.0850  273.7487    1.6698 H      2973        0    0.0000
  17844 H        1951.1729  272.0536    1.2037 H      2973        0    0.0000
  17845 C        1952.3163  273.3844   -0.0967 C.3    2974        0    0.0000
  17846 C        1953.6018  273.5521    0.7210 C.3    2974        0    0.0000
  17847 H        1952.4369  272.5732   -0.8252 H      2974        0    0.0000
  17848 H        1952.1145  274.2968   -0.6716 H      2974        0    0.0000
  17849 H        1953.6471  274.5618    1.1476 H      2974        0    0.0000
  17850 H        1953.6038  272.8526    1.5661 H      2974        0    0.0000
  17851 C        1954.8893  273.3087   -0.1396 C.3    2975        0    0.0000
  17852 C        1956.1722  273.6574    0.6230 C.3    2975        0    0.0000
  17853 H        1954.9117  272.2575   -0.4529 H      2975        0    0.0000
  17854 H        1954.8212  273.9089   -1.0555 H      2975        0    0.0000
  17855 H        1955.9484  274.3612    1.4340 H      2975        0    0.0000
  17856 H        1956.5870  272.7570    1.0927 H      2975        0    0.0000
  17857 C        1957.2634  274.2901   -0.3080 C.3    2976        0    0.0000
  17858 C        1958.5814  274.5446    0.4315 C.3    2976        0    0.0000
  17859 H        1957.4333  273.6199   -1.1598 H      2976        0    0.0000
  17860 H        1956.8752  275.2302   -0.7194 H      2976        0    0.0000
  17861 H        1958.6305  275.5888    0.7642 H      2976        0    0.0000
  17862 H        1958.6321  273.9236    1.3345 H      2976        0    0.0000
  17863 C        1959.8326  274.2397   -0.4622 C.3    2977        0    0.0000
  17864 C        1961.1429  274.3072    0.3302 C.3    2977        0    0.0000
  17865 H        1959.7141  273.2447   -0.9089 H      2977        0    0.0000
  17866 H        1959.8577  274.9567   -1.2921 H      2977        0    0.0000
  17867 H        1961.0195  274.9555    1.2066 H      2977        0    0.0000
  17868 H        1961.4049  273.3116    0.7092 H      2977        0    0.0000
  17869 C        1962.3333  274.8480   -0.5349 C.3    2978        0    0.0000
  17870 C        1963.5638  275.1830    0.3152 C.3    2978        0    0.0000
  17871 H        1962.5914  274.0959   -1.2907 H      2978        0    0.0000
  17872 H        1961.9982  275.7396   -1.0794 H      2978        0    0.0000
  17873 H        1963.5825  276.2558    0.5435 H      2978        0    0.0000
  17874 H        1963.5114  274.6570    1.2765 H      2978        0    0.0000
  17875 C        1964.9036  274.7953   -0.4005 C.3    2979        0    0.0000
  17876 C        1966.1327  275.0994    0.4632 C.3    2979        0    0.0000
  17877 H        1964.8745  273.7275   -0.6508 H      2979        0    0.0000
  17878 H        1964.9674  275.3398   -1.3507 H      2979        0    0.0000
  17879 H        1965.9534  275.9948    1.0707 H      2979        0    0.0000
  17880 H        1966.3137  274.2745    1.1634 H      2979        0    0.0000
  17881 C        1967.4233  275.3234   -0.3981 C.3    2980        0    0.0000
  17882 C        1968.6692  275.5398    0.4681 C.3    2980        0    0.0000
  17883 H        1967.5665  274.4550   -1.0529 H      2980        0    0.0000
  17884 H        1967.2654  276.1893   -1.0529 H      2980        0    0.0000
  17885 H        1968.5414  276.4310    1.0950 H      2980        0    0.0000
  17886 H        1968.8051  274.6915    1.1503 H      2980        0    0.0000
  17887 C        1969.9686  275.7094   -0.3923 C.3    2981        0    0.0000
  17888 C        1971.2084  275.9651    0.4720 C.3    2981        0    0.0000
  17889 H        1970.1121  274.8058   -0.9978 H      2981        0    0.0000
  17890 H        1969.8220  276.5393   -1.0946 H      2981        0    0.0000
  17891 H        1971.3169  277.0396    0.6651 H      2981        0    0.0000
  17892 H        1971.0925  275.4795    1.4489 H      2981        0    0.0000
  17893 C        1972.5216  275.4376   -0.2021 C.3    2982        0    0.0000
  17894 C        1973.7628  276.2076    0.2624 C.3    2982        0    0.0000
  17895 H        1972.6331  274.3706    0.0278 H      2982        0    0.0000
  17896 H        1972.4161  275.5159   -1.2912 H      2982        0    0.0000
  17897 H        1973.6489  277.2753    0.0378 H      2982        0    0.0000
  17898 H        1973.8716  276.1244    1.3509 H      2982        0    0.0000
  17899 C        1975.0751  275.6854   -0.4179 C.3    2983        0    0.0000
  17900 C        1976.3372  276.2112    0.2746 C.3    2983        0    0.0000
  17901 H        1975.0679  274.5883   -0.4044 H      2983        0    0.0000
  17902 H        1975.0709  275.9875   -1.4725 H      2983        0    0.0000
  17903 H        1976.2092  277.2685    0.5376 H      2983        0    0.0000
  17904 H        1976.5034  275.6706    1.2146 H      2983        0    0.0000
  17905 C        1977.6128  276.0651   -0.6248 C.3    2984        0    0.0000
  17906 C        1978.8408  276.7415   -0.0053 C.3    2984        0    0.0000
  17907 H        1977.8119  274.9984   -0.7854 H      2984        0    0.0000
  17908 H        1977.4020  276.4982   -1.6105 H      2984        0    0.0000
  17909 H        1978.8120  277.8213   -0.1964 H      2984        0    0.0000
  17910 H        1978.8309  276.6140    1.0843 H      2984        0    0.0000
  17911 C        1980.1847  276.1643   -0.5693 C.3    2985        0    0.0000
  17912 C        1981.4087  276.7106    0.1739 C.3    2985        0    0.0000
  17913 H        1980.1576  275.0702   -0.4965 H      2985        0    0.0000
  17914 H        1980.2533  276.4074   -1.6369 H      2985        0    0.0000
  17915 H        1981.1515  277.6462    0.6856 H      2985        0    0.0000
  17916 H        1981.7238  276.0029    0.9508 H      2985        0    0.0000
  17917 C        1982.6178  276.9765   -0.7878 C.3    2986        0    0.0000
  17918 C        1983.7969  277.6410   -0.0685 C.3    2986        0    0.0000
  17919 H        1982.9349  276.0234   -1.2289 H      2986        0    0.0000
  17920 H        1982.2777  277.6096   -1.6167 H      2986        0    0.0000
  17921 H        1983.5773  278.7002    0.1144 H      2986        0    0.0000
  17922 H        1983.9485  277.1764    0.9137 H      2986        0    0.0000
  17923 C        1985.1289  277.5352   -0.8883 C.3    2987        0    0.0000
  17924 C        1986.3580  277.9020   -0.0493 C.3    2987        0    0.0000
  17925 H        1985.2274  276.5123   -1.2725 H      2987        0    0.0000
  17926 H        1985.0596  278.1946   -1.7622 H      2987        0    0.0000
  17927 H        1986.4390  278.9923    0.0425 H      2987        0    0.0000
  17928 H        1986.2501  277.5074    0.9686 H      2987        0    0.0000
  17929 C        1987.6869  277.3470   -0.6683 C.3    2988        0    0.0000
  17930 C        1988.9014  278.2083   -0.3041 C.3    2988        0    0.0000
  17931 H        1987.8370  276.3180   -0.3188 H      2988        0    0.0000
  17932 H        1987.5751  277.2963   -1.7585 H      2988        0    0.0000
  17933 H        1988.8293  279.1866   -0.7948 H      2988        0    0.0000
  17934 H        1988.9177  278.3977    0.7763 H      2988        0    0.0000
  17935 C        1990.2542  277.5332   -0.7191 C.3    2989        0    0.0000
  17936 C        1991.4493  278.1067    0.0501 C.3    2989        0    0.0000
  17937 H        1990.1781  276.4527   -0.5450 H      2989        0    0.0000
  17938 H        1990.4008  277.6690   -1.7977 H      2989        0    0.0000
  17939 H        1991.1050  278.5985    0.9682 H      2989        0    0.0000
  17940 H        1992.1213  277.2966    0.3596 H      2989        0    0.0000
  17941 C        1992.2634  279.1405   -0.8019 C.3    2990        0    0.0000
  17942 C        1993.6438  279.4292   -0.2015 C.3    2990        0    0.0000
  17943 H        1992.3708  278.7514   -1.8219 H      2990        0    0.0000
  17944 H        1991.6848  280.0694   -0.8784 H      2990        0    0.0000
  17945 H        1993.8584  280.5039   -0.2517 H      2990        0    0.0000
  17946 H        1993.6569  279.1546    0.8606 H      2990        0    0.0000
  17947 C        1994.7871  278.6506   -0.9390 C.3    2991        0    0.0000
  17948 C        1996.1808  279.0865   -0.4732 C.3    2991        0    0.0000
  17949 H        1994.6519  277.5759   -0.7657 H      2991        0    0.0000
  17950 H        1994.6843  278.8110   -2.0193 H      2991        0    0.0000
  17951 H        1996.2316  280.1806   -0.4113 H      2991        0    0.0000
  17952 H        1996.3765  278.7044    0.5364 H      2991        0    0.0000
  17953 C        1997.3127  278.5816   -1.4328 C.3    2992        0    0.0000
  17954 C        1998.6622  279.2463   -1.1397 C.3    2992        0    0.0000
  17955 H        1997.4005  277.4924   -1.3340 H      2992        0    0.0000
  17956 H        1997.0126  278.7806   -2.4692 H      2992        0    0.0000
  17957 H        1999.1611  279.5149   -2.0791 H      2992        0    0.0000
  17958 H        1998.5088  280.1808   -0.5860 H      2992        0    0.0000
  17959 C        1999.6141  278.3177   -0.3095 C.3    2993        0    0.0000
  17960 C        2000.0045  278.9399    1.0356 C.3    2993        0    0.0000
  17961 H        1999.1154  277.3541   -0.1476 H      2993        0    0.0000
  17962 H        2000.5131  278.1113   -0.9035 H      2993        0    0.0000
  17963 H        2000.5033  279.9035    0.8739 H      2993        0    0.0000
  17964 H        1999.1055  279.1464    1.6297 H      2993        0    0.0000
  17965 H        2000.6664  278.2943    1.6129 H      2993        0    0.0000
  17966 H          -1.8102    1.2300    0.6551 H         0        0    0.0000
@<TRIPOS>BOND
     1     1     2      1
     2     1     3      1
     3     1     4      1
     4     1 17966      H
     5     2     5      1
     6     2     6      1
     7     2     7      1
     8     7     8      1
     9     7     9      1
    10     7    10      1
    11     8    11      1
    12     8    12      1
    13     8    13      1
    14    13    14      1
    15    13    15      1
    16    13    16      1
    17    14    17      1
    18    14    18      1
    19    14    19      1
    20    19    20      1
    21    19    21      1
    22    19    22      1
    23    20    23      1
    24    20    24      1
    25    20    25      1
    26    25    26      1
    27    25    27      1
    28    25    28      1
    29    26    29      1
    30    26    30      1
    31    26    31      1
    32    31    32      1
    33    31    33      1
    34    31    34      1
    35    32    35      1
    36    32    36      1
    37    32    37      1
    38    37    38      1
    39    37    39      1
    40    37    40      1
    41    38    41      1
    42    38    42      1
    43    38    43      1
    44    43    44      1
    45    43    45      1
    46    43    46      1
    47    44    47      1
    48    44    48      1
    49    44    49      1
    50    49    50      1
    51    49    51      1
    52    49    52      1
    53    50    53      1
    54    50    54      1
    55    50    55      1
    56    55    56      1
    57    55    57      1
    58    55    58      1
    59    56    59      1
    60    56    60      1
    61    56    61      1
    62    61    62      1
    63    61    63      1
    64    61    64      1
    65    62    65      1
    66    62    66      1
    67    62    67      1
    68    67    68      1
    69    67    69      1
    70    67    70      1
    71    68    71      1
    72    68    72      1
    73    68    73      1
    74    73    74      1
    75    73    75      1
    76    73    76      1
    77    74    77      1
    78    74    78      1
    79    74    79      1
    80    79    80      1
    81    79    81      1
    82    79    82      1
    83    80    83      1
    84    80    84      1
    85    80    85      1
    86    85    86      1
    87    85    87      1
    88    85    88      1
    89    86    89      1
    90    86    90      1
    91    86    91      1
    92    91    92      1
    93    91    93      1
    94    91    94      1
    95    92    95      1
    96    92    96      1
    97    92    97      1
    98    97    98      1
    99    97    99      1
   100    97   100      1
   101    98   101      1
   102    98   102      1
   103    98   103      1
   104   103   104      1
   105   103   105      1
   106   103   106      1
   107   104   107      1
   108   104   108      1
   109   104   109      1
   110   109   110      1
   111   109   111      1
   112   109   112      1
   113   110   113      1
   114   110   114      1
   115   110   115      1
   116   115   116      1
   117   115   117      1
   118   115   118      1
   119   116   119      1
   120   116   120      1
   121   116   121      1
   122   121   122      1
   123   121   123      1
   124   121   124      1
   125   122   125      1
   126   122   126      1
   127   122   127      1
   128   127   128      1
   129   127   129      1
   130   127   130      1
   131   128   131      1
   132   128   132      1
   133   128   133      1
   134   133   134      1
   135   133   135      1
   136   133   136      1
   137   134   137      1
   138   134   138      1
   139   134   139      1
   140   139   140      1
   141   139   141      1
   142   139   142      1
   143   140   143      1
   144   140   144      1
   145   140   145      1
   146   145   146      1
   147   145   147      1
   148   145   148      1
   149   146   149      1
   150   146   150      1
   151   146   151      1
   152   151   152      1
   153   151   153      1
   154   151   154      1
   155   152   155      1
   156   152   156      1
   157   152   157      1
   158   157   158      1
   159   157   159      1
   160   157   160      1
   161   158   161      1
   162   158   162      1
   163   158   163      1
   164   163   164      1
   165   163   165      1
   166   163   166      1
   167   164   167      1
   168   164   168      1
   169   164   169      1
   170   169   170      1
   171   169   171      1
   172   169   172      1
   173   170   173      1
   174   170   174      1
   175   170   175      1
   176   175   176      1
   177   175   177      1
   178   175   178      1
   179   176   179      1
   180   176   180      1
   181   176   181      1
   182   181   182      1
   183   181   183      1
   184   181   184      1
   185   182   185      1
   186   182   186      1
   187   182   187      1
   188   187   188      1
   189   187   189      1
   190   187   190      1
   191   188   191      1
   192   188   192      1
   193   188   193      1
   194   193   194      1
   195   193   195      1
   196   193   196      1
   197   194   197      1
   198   194   198      1
   199   194   199      1
   200   199   200      1
   201   199   201      1
   202   199   202      1
   203   200   203      1
   204   200   204      1
   205   200   205      1
   206   205   206      1
   207   205   207      1
   208   205   208      1
   209   206   209      1
   210   206   210      1
   211   206   211      1
   212   211   212      1
   213   211   213      1
   214   211   214      1
   215   212   215      1
   216   212   216      1
   217   212   217      1
   218   217   218      1
   219   217   219      1
   220   217   220      1
   221   218   221      1
   222   218   222      1
   223   218   223      1
   224   223   224      1
   225   223   225      1
   226   223   226      1
   227   224   227      1
   228   224   228      1
   229   224   229      1
   230   229   230      1
   231   229   231      1
   232   229   232      1
   233   230   233      1
   234   230   234      1
   235   230   235      1
   236   235   236      1
   237   235   237      1
   238   235   238      1
   239   236   239      1
   240   236   240      1
   241   236   241      1
   242   241   242      1
   243   241   243      1
   244   241   244      1
   245   242   245      1
   246   242   246      1
   247   242   247      1
   248   247   248      1
   249   247   249      1
   250   247   250      1
   251   248   251      1
   252   248   252      1
   253   248   253      1
   254   253   254      1
   255   253   255      1
   256   253   256      1
   257   254   257      1
   258   254   258      1
   259   254   259      1
   260   259   260      1
   261   259   261      1
   262   259   262      1
   263   260   263      1
   264   260   264      1
   265   260   265      1
   266   265   266      1
   267   265   267      1
   268   265   268      1
   269   266   269      1
   270   266   270      1
   271   266   271      1
   272   271   272      1
   273   271   273      1
   274   271   274      1
   275   272   275      1
   276   272   276      1
   277   272   277      1
   278   277   278      1
   279   277   279      1
   280   277   280      1
   281   278   281      1
   282   278   282      1
   283   278   283      1
   284   283   284      1
   285   283   285      1
   286   283   286      1
   287   284   287      1
   288   284   288      1
   289   284   289      1
   290   289   290      1
   291   289   291      1
   292   289   292      1
   293   290   293      1
   294   290   294      1
   295   290   295      1
   296   295   296      1
   297   295   297      1
   298   295   298      1
   299   296   299      1
   300   296   300      1
   301   296   301      1
   302   301   302      1
   303   301   303      1
   304   301   304      1
   305   302   305      1
   306   302   306      1
   307   302   307      1
   308   307   308      1
   309   307   309      1
   310   307   310      1
   311   308   311      1
   312   308   312      1
   313   308   313      1
   314   313   314      1
   315   313   315      1
   316   313   316      1
   317   314   317      1
   318   314   318      1
   319   314   319      1
   320   319   320      1
   321   319   321      1
   322   319   322      1
   323   320   323      1
   324   320   324      1
   325   320   325      1
   326   325   326      1
   327   325   327      1
   328   325   328      1
   329   326   329      1
   330   326   330      1
   331   326   331      1
   332   331   332      1
   333   331   333      1
   334   331   334      1
   335   332   335      1
   336   332   336      1
   337   332   337      1
   338   337   338      1
   339   337   339      1
   340   337   340      1
   341   338   341      1
   342   338   342      1
   343   338   343      1
   344   343   344      1
   345   343   345      1
   346   343   346      1
   347   344   347      1
   348   344   348      1
   349   344   349      1
   350   349   350      1
   351   349   351      1
   352   349   352      1
   353   350   353      1
   354   350   354      1
   355   350   355      1
   356   355   356      1
   357   355   357      1
   358   355   358      1
   359   356   359      1
   360   356   360      1
   361   356   361      1
   362   361   362      1
   363   361   363      1
   364   361   364      1
   365   362   365      1
   366   362   366      1
   367   362   367      1
   368   367   368      1
   369   367   369      1
   370   367   370      1
   371   368   371      1
   372   368   372      1
   373   368   373      1
   374   373   374      1
   375   373   375      1
   376   373   376      1
   377   374   377      1
   378   374   378      1
   379   374   379      1
   380   379   380      1
   381   379   381      1
   382   379   382      1
   383   380   383      1
   384   380   384      1
   385   380   385      1
   386   385   386      1
   387   385   387      1
   388   385   388      1
   389   386   389      1
   390   386   390      1
   391   386   391      1
   392   391   392      1
   393   391   393      1
   394   391   394      1
   395   392   395      1
   396   392   396      1
   397   392   397      1
   398   397   398      1
   399   397   399      1
   400   397   400      1
   401   398   401      1
   402   398   402      1
   403   398   403      1
   404   403   404      1
   405   403   405      1
   406   403   406      1
   407   404   407      1
   408   404   408      1
   409   404   409      1
   410   409   410      1
   411   409   411      1
   412   409   412      1
   413   410   413      1
   414   410   414      1
   415   410   415      1
   416   415   416      1
   417   415   417      1
   418   415   418      1
   419   416   419      1
   420   416   420      1
   421   416   421      1
   422   421   422      1
   423   421   423      1
   424   421   424      1
   425   422   425      1
   426   422   426      1
   427   422   427      1
   428   427   428      1
   429   427   429      1
   430   427   430      1
   431   428   431      1
   432   428   432      1
   433   428   433      1
   434   433   434      1
   435   433   435      1
   436   433   436      1
   437   434   437      1
   438   434   438      1
   439   434   439      1
   440   439   440      1
   441   439   441      1
   442   439   442      1
   443   440   443      1
   444   440   444      1
   445   440   445      1
   446   445   446      1
   447   445   447      1
   448   445   448      1
   449   446   449      1
   450   446   450      1
   451   446   451      1
   452   451   452      1
   453   451   453      1
   454   451   454      1
   455   452   455      1
   456   452   456      1
   457   452   457      1
   458   457   458      1
   459   457   459      1
   460   457   460      1
   461   458   461      1
   462   458   462      1
   463   458   463      1
   464   463   464      1
   465   463   465      1
   466   463   466      1
   467   464   467      1
   468   464   468      1
   469   464   469      1
   470   469   470      1
   471   469   471      1
   472   469   472      1
   473   470   473      1
   474   470   474      1
   475   470   475      1
   476   475   476      1
   477   475   477      1
   478   475   478      1
   479   476   479      1
   480   476   480      1
   481   476   481      1
   482   481   482      1
   483   481   483      1
   484   481   484      1
   485   482   485      1
   486   482   486      1
   487   482   487      1
   488   487   488      1
   489   487   489      1
   490   487   490      1
   491   488   491      1
   492   488   492      1
   493   488   493      1
   494   493   494      1
   495   493   495      1
   496   493   496      1
   497   494   497      1
   498   494   498      1
   499   494   499      1
   500   499   500      1
   501   499   501      1
   502   499   502      1
   503   500   503      1
   504   500   504      1
   505   500   505      1
   506   505   506      1
   507   505   507      1
   508   505   508      1
   509   506   509      1
   510   506   510      1
   511   506   511      1
   512   511   512      1
   513   511   513      1
   514   511   514      1
   515   512   515      1
   516   512   516      1
   517   512   517      1
   518   517   518      1
   519   517   519      1
   520   517   520      1
   521   518   521      1
   522   518   522      1
   523   518   523      1
   524   523   524      1
   525   523   525      1
   526   523   526      1
   527   524   527      1
   528   524   528      1
   529   524   529      1
   530   529   530      1
   531   529   531      1
   532   529   532      1
   533   530   533      1
   534   530   534      1
   535   530   535      1
   536   535   536      1
   537   535   537      1
   538   535   538      1
   539   536   539      1
   540   536   540      1
   541   536   541      1
   542   541   542      1
   543   541   543      1
   544   541   544      1
   545   542   545      1
   546   542   546      1
   547   542   547      1
   548   547   548      1
   549   547   549      1
   550   547   550      1
   551   548   551      1
   552   548   552      1
   553   548   553      1
   554   553   554      1
   555   553   555      1
   556   553   556      1
   557   554   557      1
   558   554   558      1
   559   554   559      1
   560   559   560      1
   561   559   561      1
   562   559   562      1
   563   560   563      1
   564   560   564      1
   565   560   565      1
   566   565   566      1
   567   565   567      1
   568   565   568      1
   569   566   569      1
   570   566   570      1
   571   566   571      1
   572   571   572      1
   573   571   573      1
   574   571   574      1
   575   572   575      1
   576   572   576      1
   577   572   577      1
   578   577   578      1
   579   577   579      1
   580   577   580      1
   581   578   581      1
   582   578   582      1
   583   578   583      1
   584   583   584      1
   585   583   585      1
   586   583   586      1
   587   584   587      1
   588   584   588      1
   589   584   589      1
   590   589   590      1
   591   589   591      1
   592   589   592      1
   593   590   593      1
   594   590   594      1
   595   590   595      1
   596   595   596      1
   597   595   597      1
   598   595   598      1
   599   596   599      1
   600   596   600      1
   601   596   601      1
   602   601   602      1
   603   601   603      1
   604   601   604      1
   605   602   605      1
   606   602   606      1
   607   602   607      1
   608   607   608      1
   609   607   609      1
   610   607   610      1
   611   608   611      1
   612   608   612      1
   613   608   613      1
   614   613   614      1
   615   613   615      1
   616   613   616      1
   617   614   617      1
   618   614   618      1
   619   614   619      1
   620   619   620      1
   621   619   621      1
   622   619   622      1
   623   620   623      1
   624   620   624      1
   625   620   625      1
   626   625   626      1
   627   625   627      1
   628   625   628      1
   629   626   629      1
   630   626   630      1
   631   626   631      1
   632   631   632      1
   633   631   633      1
   634   631   634      1
   635   632   635      1
   636   632   636      1
   637   632   637      1
   638   637   638      1
   639   637   639      1
   640   637   640      1
   641   638   641      1
   642   638   642      1
   643   638   643      1
   644   643   644      1
   645   643   645      1
   646   643   646      1
   647   644   647      1
   648   644   648      1
   649   644   649      1
   650   649   650      1
   651   649   651      1
   652   649   652      1
   653   650   653      1
   654   650   654      1
   655   650   655      1
   656   655   656      1
   657   655   657      1
   658   655   658      1
   659   656   659      1
   660   656   660      1
   661   656   661      1
   662   661   662      1
   663   661   663      1
   664   661   664      1
   665   662   665      1
   666   662   666      1
   667   662   667      1
   668   667   668      1
   669   667   669      1
   670   667   670      1
   671   668   671      1
   672   668   672      1
   673   668   673      1
   674   673   674      1
   675   673   675      1
   676   673   676      1
   677   674   677      1
   678   674   678      1
   679   674   679      1
   680   679   680      1
   681   679   681      1
   682   679   682      1
   683   680   683      1
   684   680   684      1
   685   680   685      1
   686   685   686      1
   687   685   687      1
   688   685   688      1
   689   686   689      1
   690   686   690      1
   691   686   691      1
   692   691   692      1
   693   691   693      1
   694   691   694      1
   695   692   695      1
   696   692   696      1
   697   692   697      1
   698   697   698      1
   699   697   699      1
   700   697   700      1
   701   698   701      1
   702   698   702      1
   703   698   703      1
   704   703   704      1
   705   703   705      1
   706   703   706      1
   707   704   707      1
   708   704   708      1
   709   704   709      1
   710   709   710      1
   711   709   711      1
   712   709   712      1
   713   710   713      1
   714   710   714      1
   715   710   715      1
   716   715   716      1
   717   715   717      1
   718   715   718      1
   719   716   719      1
   720   716   720      1
   721   716   721      1
   722   721   722      1
   723   721   723      1
   724   721   724      1
   725   722   725      1
   726   722   726      1
   727   722   727      1
   728   727   728      1
   729   727   729      1
   730   727   730      1
   731   728   731      1
   732   728   732      1
   733   728   733      1
   734   733   734      1
   735   733   735      1
   736   733   736      1
   737   734   737      1
   738   734   738      1
   739   734   739      1
   740   739   740      1
   741   739   741      1
   742   739   742      1
   743   740   743      1
   744   740   744      1
   745   740   745      1
   746   745   746      1
   747   745   747      1
   748   745   748      1
   749   746   749      1
   750   746   750      1
   751   746   751      1
   752   751   752      1
   753   751   753      1
   754   751   754      1
   755   752   755      1
   756   752   756      1
   757   752   757      1
   758   757   758      1
   759   757   759      1
   760   757   760      1
   761   758   761      1
   762   758   762      1
   763   758   763      1
   764   763   764      1
   765   763   765      1
   766   763   766      1
   767   764   767      1
   768   764   768      1
   769   764   769      1
   770   769   770      1
   771   769   771      1
   772   769   772      1
   773   770   773      1
   774   770   774      1
   775   770   775      1
   776   775   776      1
   777   775   777      1
   778   775   778      1
   779   776   779      1
   780   776   780      1
   781   776   781      1
   782   781   782      1
   783   781   783      1
   784   781   784      1
   785   782   785      1
   786   782   786      1
   787   782   787      1
   788   787   788      1
   789   787   789      1
   790   787   790      1
   791   788   791      1
   792   788   792      1
   793   788   793      1
   794   793   794      1
   795   793   795      1
   796   793   796      1
   797   794   797      1
   798   794   798      1
   799   794   799      1
   800   799   800      1
   801   799   801      1
   802   799   802      1
   803   800   803      1
   804   800   804      1
   805   800   805      1
   806   805   806      1
   807   805   807      1
   808   805   808      1
   809   806   809      1
   810   806   810      1
   811   806   811      1
   812   811   812      1
   813   811   813      1
   814   811   814      1
   815   812   815      1
   816   812   816      1
   817   812   817      1
   818   817   818      1
   819   817   819      1
   820   817   820      1
   821   818   821      1
   822   818   822      1
   823   818   823      1
   824   823   824      1
   825   823   825      1
   826   823   826      1
   827   824   827      1
   828   824   828      1
   829   824   829      1
   830   829   830      1
   831   829   831      1
   832   829   832      1
   833   830   833      1
   834   830   834      1
   835   830   835      1
   836   835   836      1
   837   835   837      1
   838   835   838      1
   839   836   839      1
   840   836   840      1
   841   836   841      1
   842   841   842      1
   843   841   843      1
   844   841   844      1
   845   842   845      1
   846   842   846      1
   847   842   847      1
   848   847   848      1
   849   847   849      1
   850   847   850      1
   851   848   851      1
   852   848   852      1
   853   848   853      1
   854   853   854      1
   855   853   855      1
   856   853   856      1
   857   854   857      1
   858   854   858      1
   859   854   859      1
   860   859   860      1
   861   859   861      1
   862   859   862      1
   863   860   863      1
   864   860   864      1
   865   860   865      1
   866   865   866      1
   867   865   867      1
   868   865   868      1
   869   866   869      1
   870   866   870      1
   871   866   871      1
   872   871   872      1
   873   871   873      1
   874   871   874      1
   875   872   875      1
   876   872   876      1
   877   872   877      1
   878   877   878      1
   879   877   879      1
   880   877   880      1
   881   878   881      1
   882   878   882      1
   883   878   883      1
   884   883   884      1
   885   883   885      1
   886   883   886      1
   887   884   887      1
   888   884   888      1
   889   884   889      1
   890   889   890      1
   891   889   891      1
   892   889   892      1
   893   890   893      1
   894   890   894      1
   895   890   895      1
   896   895   896      1
   897   895   897      1
   898   895   898      1
   899   896   899      1
   900   896   900      1
   901   896   901      1
   902   901   902      1
   903   901   903      1
   904   901   904      1
   905   902   905      1
   906   902   906      1
   907   902   907      1
   908   907   908      1
   909   907   909      1
   910   907   910      1
   911   908   911      1
   912   908   912      1
   913   908   913      1
   914   913   914      1
   915   913   915      1
   916   913   916      1
   917   914   917      1
   918   914   918      1
   919   914   919      1
   920   919   920      1
   921   919   921      1
   922   919   922      1
   923   920   923      1
   924   920   924      1
   925   920   925      1
   926   925   926      1
   927   925   927      1
   928   925   928      1
   929   926   929      1
   930   926   930      1
   931   926   931      1
   932   931   932      1
   933   931   933      1
   934   931   934      1
   935   932   935      1
   936   932   936      1
   937   932   937      1
   938   937   938      1
   939   937   939      1
   940   937   940      1
   941   938   941      1
   942   938   942      1
   943   938   943      1
   944   943   944      1
   945   943   945      1
   946   943   946      1
   947   944   947      1
   948   944   948      1
   949   944   949      1
   950   949   950      1
   951   949   951      1
   952   949   952      1
   953   950   953      1
   954   950   954      1
   955   950   955      1
   956   955   956      1
   957   955   957      1
   958   955   958      1
   959   956   959      1
   960   956   960      1
   961   956   961      1
   962   961   962      1
   963   961   963      1
   964   961   964      1
   965   962   965      1
   966   962   966      1
   967   962   967      1
   968   967   968      1
   969   967   969      1
   970   967   970      1
   971   968   971      1
   972   968   972      1
   973   968   973      1
   974   973   974      1
   975   973   975      1
   976   973   976      1
   977   974   977      1
   978   974   978      1
   979   974   979      1
   980   979   980      1
   981   979   981      1
   982   979   982      1
   983   980   983      1
   984   980   984      1
   985   980   985      1
   986   985   986      1
   987   985   987      1
   988   985   988      1
   989   986   989      1
   990   986   990      1
   991   986   991      1
   992   991   992      1
   993   991   993      1
   994   991   994      1
   995   992   995      1
   996   992   996      1
   997   992   997      1
   998   997   998      1
   999   997   999      1
  1000   997  1000      1
  1001   998  1001      1
  1002   998  1002      1
  1003   998  1003      1
  1004  1003  1004      1
  1005  1003  1005      1
  1006  1003  1006      1
  1007  1004  1007      1
  1008  1004  1008      1
  1009  1004  1009      1
  1010  1009  1010      1
  1011  1009  1011      1
  1012  1009  1012      1
  1013  1010  1013      1
  1014  1010  1014      1
  1015  1010  1015      1
  1016  1015  1016      1
  1017  1015  1017      1
  1018  1015  1018      1
  1019  1016  1019      1
  1020  1016  1020      1
  1021  1016  1021      1
  1022  1021  1022      1
  1023  1021  1023      1
  1024  1021  1024      1
  1025  1022  1025      1
  1026  1022  1026      1
  1027  1022  1027      1
  1028  1027  1028      1
  1029  1027  1029      1
  1030  1027  1030      1
  1031  1028  1031      1
  1032  1028  1032      1
  1033  1028  1033      1
  1034  1033  1034      1
  1035  1033  1035      1
  1036  1033  1036      1
  1037  1034  1037      1
  1038  1034  1038      1
  1039  1034  1039      1
  1040  1039  1040      1
  1041  1039  1041      1
  1042  1039  1042      1
  1043  1040  1043      1
  1044  1040  1044      1
  1045  1040  1045      1
  1046  1045  1046      1
  1047  1045  1047      1
  1048  1045  1048      1
  1049  1046  1049      1
  1050  1046  1050      1
  1051  1046  1051      1
  1052  1051  1052      1
  1053  1051  1053      1
  1054  1051  1054      1
  1055  1052  1055      1
  1056  1052  1056      1
  1057  1052  1057      1
  1058  1057  1058      1
  1059  1057  1059      1
  1060  1057  1060      1
  1061  1058  1061      1
  1062  1058  1062      1
  1063  1058  1063      1
  1064  1063  1064      1
  1065  1063  1065      1
  1066  1063  1066      1
  1067  1064  1067      1
  1068  1064  1068      1
  1069  1064  1069      1
  1070  1069  1070      1
  1071  1069  1071      1
  1072  1069  1072      1
  1073  1070  1073      1
  1074  1070  1074      1
  1075  1070  1075      1
  1076  1075  1076      1
  1077  1075  1077      1
  1078  1075  1078      1
  1079  1076  1079      1
  1080  1076  1080      1
  1081  1076  1081      1
  1082  1081  1082      1
  1083  1081  1083      1
  1084  1081  1084      1
  1085  1082  1085      1
  1086  1082  1086      1
  1087  1082  1087      1
  1088  1087  1088      1
  1089  1087  1089      1
  1090  1087  1090      1
  1091  1088  1091      1
  1092  1088  1092      1
  1093  1088  1093      1
  1094  1093  1094      1
  1095  1093  1095      1
  1096  1093  1096      1
  1097  1094  1097      1
  1098  1094  1098      1
  1099  1094  1099      1
  1100  1099  1100      1
  1101  1099  1101      1
  1102  1099  1102      1
  1103  1100  1103      1
  1104  1100  1104      1
  1105  1100  1105      1
  1106  1105  1106      1
  1107  1105  1107      1
  1108  1105  1108      1
  1109  1106  1109      1
  1110  1106  1110      1
  1111  1106  1111      1
  1112  1111  1112      1
  1113  1111  1113      1
  1114  1111  1114      1
  1115  1112  1115      1
  1116  1112  1116      1
  1117  1112  1117      1
  1118  1117  1118      1
  1119  1117  1119      1
  1120  1117  1120      1
  1121  1118  1121      1
  1122  1118  1122      1
  1123  1118  1123      1
  1124  1123  1124      1
  1125  1123  1125      1
  1126  1123  1126      1
  1127  1124  1127      1
  1128  1124  1128      1
  1129  1124  1129      1
  1130  1129  1130      1
  1131  1129  1131      1
  1132  1129  1132      1
  1133  1130  1133      1
  1134  1130  1134      1
  1135  1130  1135      1
  1136  1135  1136      1
  1137  1135  1137      1
  1138  1135  1138      1
  1139  1136  1139      1
  1140  1136  1140      1
  1141  1136  1141      1
  1142  1141  1142      1
  1143  1141  1143      1
  1144  1141  1144      1
  1145  1142  1145      1
  1146  1142  1146      1
  1147  1142  1147      1
  1148  1147  1148      1
  1149  1147  1149      1
  1150  1147  1150      1
  1151  1148  1151      1
  1152  1148  1152      1
  1153  1148  1153      1
  1154  1153  1154      1
  1155  1153  1155      1
  1156  1153  1156      1
  1157  1154  1157      1
  1158  1154  1158      1
  1159  1154  1159      1
  1160  1159  1160      1
  1161  1159  1161      1
  1162  1159  1162      1
  1163  1160  1163      1
  1164  1160  1164      1
  1165  1160  1165      1
  1166  1165  1166      1
  1167  1165  1167      1
  1168  1165  1168      1
  1169  1166  1169      1
  1170  1166  1170      1
  1171  1166  1171      1
  1172  1171  1172      1
  1173  1171  1173      1
  1174  1171  1174      1
  1175  1172  1175      1
  1176  1172  1176      1
  1177  1172  1177      1
  1178  1177  1178      1
  1179  1177  1179      1
  1180  1177  1180      1
  1181  1178  1181      1
  1182  1178  1182      1
  1183  1178  1183      1
  1184  1183  1184      1
  1185  1183  1185      1
  1186  1183  1186      1
  1187  1184  1187      1
  1188  1184  1188      1
  1189  1184  1189      1
  1190  1189  1190      1
  1191  1189  1191      1
  1192  1189  1192      1
  1193  1190  1193      1
  1194  1190  1194      1
  1195  1190  1195      1
  1196  1195  1196      1
  1197  1195  1197      1
  1198  1195  1198      1
  1199  1196  1199      1
  1200  1196  1200      1
  1201  1196  1201      1
  1202  1201  1202      1
  1203  1201  1203      1
  1204  1201  1204      1
  1205  1202  1205      1
  1206  1202  1206      1
  1207  1202  1207      1
  1208  1207  1208      1
  1209  1207  1209      1
  1210  1207  1210      1
  1211  1208  1211      1
  1212  1208  1212      1
  1213  1208  1213      1
  1214  1213  1214      1
  1215  1213  1215      1
  1216  1213  1216      1
  1217  1214  1217      1
  1218  1214  1218      1
  1219  1214  1219      1
  1220  1219  1220      1
  1221  1219  1221      1
  1222  1219  1222      1
  1223  1220  1223      1
  1224  1220  1224      1
  1225  1220  1225      1
  1226  1225  1226      1
  1227  1225  1227      1
  1228  1225  1228      1
  1229  1226  1229      1
  1230  1226  1230      1
  1231  1226  1231      1
  1232  1231  1232      1
  1233  1231  1233      1
  1234  1231  1234      1
  1235  1232  1235      1
  1236  1232  1236      1
  1237  1232  1237      1
  1238  1237  1238      1
  1239  1237  1239      1
  1240  1237  1240      1
  1241  1238  1241      1
  1242  1238  1242      1
  1243  1238  1243      1
  1244  1243  1244      1
  1245  1243  1245      1
  1246  1243  1246      1
  1247  1244  1247      1
  1248  1244  1248      1
  1249  1244  1249      1
  1250  1249  1250      1
  1251  1249  1251      1
  1252  1249  1252      1
  1253  1250  1253      1
  1254  1250  1254      1
  1255  1250  1255      1
  1256  1255  1256      1
  1257  1255  1257      1
  1258  1255  1258      1
  1259  1256  1259      1
  1260  1256  1260      1
  1261  1256  1261      1
  1262  1261  1262      1
  1263  1261  1263      1
  1264  1261  1264      1
  1265  1262  1265      1
  1266  1262  1266      1
  1267  1262  1267      1
  1268  1267  1268      1
  1269  1267  1269      1
  1270  1267  1270      1
  1271  1268  1271      1
  1272  1268  1272      1
  1273  1268  1273      1
  1274  1273  1274      1
  1275  1273  1275      1
  1276  1273  1276      1
  1277  1274  1277      1
  1278  1274  1278      1
  1279  1274  1279      1
  1280  1279  1280      1
  1281  1279  1281      1
  1282  1279  1282      1
  1283  1280  1283      1
  1284  1280  1284      1
  1285  1280  1285      1
  1286  1285  1286      1
  1287  1285  1287      1
  1288  1285  1288      1
  1289  1286  1289      1
  1290  1286  1290      1
  1291  1286  1291      1
  1292  1291  1292      1
  1293  1291  1293      1
  1294  1291  1294      1
  1295  1292  1295      1
  1296  1292  1296      1
  1297  1292  1297      1
  1298  1297  1298      1
  1299  1297  1299      1
  1300  1297  1300      1
  1301  1298  1301      1
  1302  1298  1302      1
  1303  1298  1303      1
  1304  1303  1304      1
  1305  1303  1305      1
  1306  1303  1306      1
  1307  1304  1307      1
  1308  1304  1308      1
  1309  1304  1309      1
  1310  1309  1310      1
  1311  1309  1311      1
  1312  1309  1312      1
  1313  1310  1313      1
  1314  1310  1314      1
  1315  1310  1315      1
  1316  1315  1316      1
  1317  1315  1317      1
  1318  1315  1318      1
  1319  1316  1319      1
  1320  1316  1320      1
  1321  1316  1321      1
  1322  1321  1322      1
  1323  1321  1323      1
  1324  1321  1324      1
  1325  1322  1325      1
  1326  1322  1326      1
  1327  1322  1327      1
  1328  1327  1328      1
  1329  1327  1329      1
  1330  1327  1330      1
  1331  1328  1331      1
  1332  1328  1332      1
  1333  1328  1333      1
  1334  1333  1334      1
  1335  1333  1335      1
  1336  1333  1336      1
  1337  1334  1337      1
  1338  1334  1338      1
  1339  1334  1339      1
  1340  1339  1340      1
  1341  1339  1341      1
  1342  1339  1342      1
  1343  1340  1343      1
  1344  1340  1344      1
  1345  1340  1345      1
  1346  1345  1346      1
  1347  1345  1347      1
  1348  1345  1348      1
  1349  1346  1349      1
  1350  1346  1350      1
  1351  1346  1351      1
  1352  1351  1352      1
  1353  1351  1353      1
  1354  1351  1354      1
  1355  1352  1355      1
  1356  1352  1356      1
  1357  1352  1357      1
  1358  1357  1358      1
  1359  1357  1359      1
  1360  1357  1360      1
  1361  1358  1361      1
  1362  1358  1362      1
  1363  1358  1363      1
  1364  1363  1364      1
  1365  1363  1365      1
  1366  1363  1366      1
  1367  1364  1367      1
  1368  1364  1368      1
  1369  1364  1369      1
  1370  1369  1370      1
  1371  1369  1371      1
  1372  1369  1372      1
  1373  1370  1373      1
  1374  1370  1374      1
  1375  1370  1375      1
  1376  1375  1376      1
  1377  1375  1377      1
  1378  1375  1378      1
  1379  1376  1379      1
  1380  1376  1380      1
  1381  1376  1381      1
  1382  1381  1382      1
  1383  1381  1383      1
  1384  1381  1384      1
  1385  1382  1385      1
  1386  1382  1386      1
  1387  1382  1387      1
  1388  1387  1388      1
  1389  1387  1389      1
  1390  1387  1390      1
  1391  1388  1391      1
  1392  1388  1392      1
  1393  1388  1393      1
  1394  1393  1394      1
  1395  1393  1395      1
  1396  1393  1396      1
  1397  1394  1397      1
  1398  1394  1398      1
  1399  1394  1399      1
  1400  1399  1400      1
  1401  1399  1401      1
  1402  1399  1402      1
  1403  1400  1403      1
  1404  1400  1404      1
  1405  1400  1405      1
  1406  1405  1406      1
  1407  1405  1407      1
  1408  1405  1408      1
  1409  1406  1409      1
  1410  1406  1410      1
  1411  1406  1411      1
  1412  1411  1412      1
  1413  1411  1413      1
  1414  1411  1414      1
  1415  1412  1415      1
  1416  1412  1416      1
  1417  1412  1417      1
  1418  1417  1418      1
  1419  1417  1419      1
  1420  1417  1420      1
  1421  1418  1421      1
  1422  1418  1422      1
  1423  1418  1423      1
  1424  1423  1424      1
  1425  1423  1425      1
  1426  1423  1426      1
  1427  1424  1427      1
  1428  1424  1428      1
  1429  1424  1429      1
  1430  1429  1430      1
  1431  1429  1431      1
  1432  1429  1432      1
  1433  1430  1433      1
  1434  1430  1434      1
  1435  1430  1435      1
  1436  1435  1436      1
  1437  1435  1437      1
  1438  1435  1438      1
  1439  1436  1439      1
  1440  1436  1440      1
  1441  1436  1441      1
  1442  1441  1442      1
  1443  1441  1443      1
  1444  1441  1444      1
  1445  1442  1445      1
  1446  1442  1446      1
  1447  1442  1447      1
  1448  1447  1448      1
  1449  1447  1449      1
  1450  1447  1450      1
  1451  1448  1451      1
  1452  1448  1452      1
  1453  1448  1453      1
  1454  1453  1454      1
  1455  1453  1455      1
  1456  1453  1456      1
  1457  1454  1457      1
  1458  1454  1458      1
  1459  1454  1459      1
  1460  1459  1460      1
  1461  1459  1461      1
  1462  1459  1462      1
  1463  1460  1463      1
  1464  1460  1464      1
  1465  1460  1465      1
  1466  1465  1466      1
  1467  1465  1467      1
  1468  1465  1468      1
  1469  1466  1469      1
  1470  1466  1470      1
  1471  1466  1471      1
  1472  1471  1472      1
  1473  1471  1473      1
  1474  1471  1474      1
  1475  1472  1475      1
  1476  1472  1476      1
  1477  1472  1477      1
  1478  1477  1478      1
  1479  1477  1479      1
  1480  1477  1480      1
  1481  1478  1481      1
  1482  1478  1482      1
  1483  1478  1483      1
  1484  1483  1484      1
  1485  1483  1485      1
  1486  1483  1486      1
  1487  1484  1487      1
  1488  1484  1488      1
  1489  1484  1489      1
  1490  1489  1490      1
  1491  1489  1491      1
  1492  1489  1492      1
  1493  1490  1493      1
  1494  1490  1494      1
  1495  1490  1495      1
  1496  1495  1496      1
  1497  1495  1497      1
  1498  1495  1498      1
  1499  1496  1499      1
  1500  1496  1500      1
  1501  1496  1501      1
  1502  1501  1502      1
  1503  1501  1503      1
  1504  1501  1504      1
  1505  1502  1505      1
  1506  1502  1506      1
  1507  1502  1507      1
  1508  1507  1508      1
  1509  1507  1509      1
  1510  1507  1510      1
  1511  1508  1511      1
  1512  1508  1512      1
  1513  1508  1513      1
  1514  1513  1514      1
  1515  1513  1515      1
  1516  1513  1516      1
  1517  1514  1517      1
  1518  1514  1518      1
  1519  1514  1519      1
  1520  1519  1520      1
  1521  1519  1521      1
  1522  1519  1522      1
  1523  1520  1523      1
  1524  1520  1524      1
  1525  1520  1525      1
  1526  1525  1526      1
  1527  1525  1527      1
  1528  1525  1528      1
  1529  1526  1529      1
  1530  1526  1530      1
  1531  1526  1531      1
  1532  1531  1532      1
  1533  1531  1533      1
  1534  1531  1534      1
  1535  1532  1535      1
  1536  1532  1536      1
  1537  1532  1537      1
  1538  1537  1538      1
  1539  1537  1539      1
  1540  1537  1540      1
  1541  1538  1541      1
  1542  1538  1542      1
  1543  1538  1543      1
  1544  1543  1544      1
  1545  1543  1545      1
  1546  1543  1546      1
  1547  1544  1547      1
  1548  1544  1548      1
  1549  1544  1549      1
  1550  1549  1550      1
  1551  1549  1551      1
  1552  1549  1552      1
  1553  1550  1553      1
  1554  1550  1554      1
  1555  1550  1555      1
  1556  1555  1556      1
  1557  1555  1557      1
  1558  1555  1558      1
  1559  1556  1559      1
  1560  1556  1560      1
  1561  1556  1561      1
  1562  1561  1562      1
  1563  1561  1563      1
  1564  1561  1564      1
  1565  1562  1565      1
  1566  1562  1566      1
  1567  1562  1567      1
  1568  1567  1568      1
  1569  1567  1569      1
  1570  1567  1570      1
  1571  1568  1571      1
  1572  1568  1572      1
  1573  1568  1573      1
  1574  1573  1574      1
  1575  1573  1575      1
  1576  1573  1576      1
  1577  1574  1577      1
  1578  1574  1578      1
  1579  1574  1579      1
  1580  1579  1580      1
  1581  1579  1581      1
  1582  1579  1582      1
  1583  1580  1583      1
  1584  1580  1584      1
  1585  1580  1585      1
  1586  1585  1586      1
  1587  1585  1587      1
  1588  1585  1588      1
  1589  1586  1589      1
  1590  1586  1590      1
  1591  1586  1591      1
  1592  1591  1592      1
  1593  1591  1593      1
  1594  1591  1594      1
  1595  1592  1595      1
  1596  1592  1596      1
  1597  1592  1597      1
  1598  1597  1598      1
  1599  1597  1599      1
  1600  1597  1600      1
  1601  1598  1601      1
  1602  1598  1602      1
  1603  1598  1603      1
  1604  1603  1604      1
  1605  1603  1605      1
  1606  1603  1606      1
  1607  1604  1607      1
  1608  1604  1608      1
  1609  1604  1609      1
  1610  1609  1610      1
  1611  1609  1611      1
  1612  1609  1612      1
  1613  1610  1613      1
  1614  1610  1614      1
  1615  1610  1615      1
  1616  1615  1616      1
  1617  1615  1617      1
  1618  1615  1618      1
  1619  1616  1619      1
  1620  1616  1620      1
  1621  1616  1621      1
  1622  1621  1622      1
  1623  1621  1623      1
  1624  1621  1624      1
  1625  1622  1625      1
  1626  1622  1626      1
  1627  1622  1627      1
  1628  1627  1628      1
  1629  1627  1629      1
  1630  1627  1630      1
  1631  1628  1631      1
  1632  1628  1632      1
  1633  1628  1633      1
  1634  1633  1634      1
  1635  1633  1635      1
  1636  1633  1636      1
  1637  1634  1637      1
  1638  1634  1638      1
  1639  1634  1639      1
  1640  1639  1640      1
  1641  1639  1641      1
  1642  1639  1642      1
  1643  1640  1643      1
  1644  1640  1644      1
  1645  1640  1645      1
  1646  1645  1646      1
  1647  1645  1647      1
  1648  1645  1648      1
  1649  1646  1649      1
  1650  1646  1650      1
  1651  1646  1651      1
  1652  1651  1652      1
  1653  1651  1653      1
  1654  1651  1654      1
  1655  1652  1655      1
  1656  1652  1656      1
  1657  1652  1657      1
  1658  1657  1658      1
  1659  1657  1659      1
  1660  1657  1660      1
  1661  1658  1661      1
  1662  1658  1662      1
  1663  1658  1663      1
  1664  1663  1664      1
  1665  1663  1665      1
  1666  1663  1666      1
  1667  1664  1667      1
  1668  1664  1668      1
  1669  1664  1669      1
  1670  1669  1670      1
  1671  1669  1671      1
  1672  1669  1672      1
  1673  1670  1673      1
  1674  1670  1674      1
  1675  1670  1675      1
  1676  1675  1676      1
  1677  1675  1677      1
  1678  1675  1678      1
  1679  1676  1679      1
  1680  1676  1680      1
  1681  1676  1681      1
  1682  1681  1682      1
  1683  1681  1683      1
  1684  1681  1684      1
  1685  1682  1685      1
  1686  1682  1686      1
  1687  1682  1687      1
  1688  1687  1688      1
  1689  1687  1689      1
  1690  1687  1690      1
  1691  1688  1691      1
  1692  1688  1692      1
  1693  1688  1693      1
  1694  1693  1694      1
  1695  1693  1695      1
  1696  1693  1696      1
  1697  1694  1697      1
  1698  1694  1698      1
  1699  1694  1699      1
  1700  1699  1700      1
  1701  1699  1701      1
  1702  1699  1702      1
  1703  1700  1703      1
  1704  1700  1704      1
  1705  1700  1705      1
  1706  1705  1706      1
  1707  1705  1707      1
  1708  1705  1708      1
  1709  1706  1709      1
  1710  1706  1710      1
  1711  1706  1711      1
  1712  1711  1712      1
  1713  1711  1713      1
  1714  1711  1714      1
  1715  1712  1715      1
  1716  1712  1716      1
  1717  1712  1717      1
  1718  1717  1718      1
  1719  1717  1719      1
  1720  1717  1720      1
  1721  1718  1721      1
  1722  1718  1722      1
  1723  1718  1723      1
  1724  1723  1724      1
  1725  1723  1725      1
  1726  1723  1726      1
  1727  1724  1727      1
  1728  1724  1728      1
  1729  1724  1729      1
  1730  1729  1730      1
  1731  1729  1731      1
  1732  1729  1732      1
  1733  1730  1733      1
  1734  1730  1734      1
  1735  1730  1735      1
  1736  1735  1736      1
  1737  1735  1737      1
  1738  1735  1738      1
  1739  1736  1739      1
  1740  1736  1740      1
  1741  1736  1741      1
  1742  1741  1742      1
  1743  1741  1743      1
  1744  1741  1744      1
  1745  1742  1745      1
  1746  1742  1746      1
  1747  1742  1747      1
  1748  1747  1748      1
  1749  1747  1749      1
  1750  1747  1750      1
  1751  1748  1751      1
  1752  1748  1752      1
  1753  1748  1753      1
  1754  1753  1754      1
  1755  1753  1755      1
  1756  1753  1756      1
  1757  1754  1757      1
  1758  1754  1758      1
  1759  1754  1759      1
  1760  1759  1760      1
  1761  1759  1761      1
  1762  1759  1762      1
  1763  1760  1763      1
  1764  1760  1764      1
  1765  1760  1765      1
  1766  1765  1766      1
  1767  1765  1767      1
  1768  1765  1768      1
  1769  1766  1769      1
  1770  1766  1770      1
  1771  1766  1771      1
  1772  1771  1772      1
  1773  1771  1773      1
  1774  1771  1774      1
  1775  1772  1775      1
  1776  1772  1776      1
  1777  1772  1777      1
  1778  1777  1778      1
  1779  1777  1779      1
  1780  1777  1780      1
  1781  1778  1781      1
  1782  1778  1782      1
  1783  1778  1783      1
  1784  1783  1784      1
  1785  1783  1785      1
  1786  1783  1786      1
  1787  1784  1787      1
  1788  1784  1788      1
  1789  1784  1789      1
  1790  1789  1790      1
  1791  1789  1791      1
  1792  1789  1792      1
  1793  1790  1793      1
  1794  1790  1794      1
  1795  1790  1795      1
  1796  1795  1796      1
  1797  1795  1797      1
  1798  1795  1798      1
  1799  1796  1799      1
  1800  1796  1800      1
  1801  1796  1801      1
  1802  1801  1802      1
  1803  1801  1803      1
  1804  1801  1804      1
  1805  1802  1805      1
  1806  1802  1806      1
  1807  1802  1807      1
  1808  1807  1808      1
  1809  1807  1809      1
  1810  1807  1810      1
  1811  1808  1811      1
  1812  1808  1812      1
  1813  1808  1813      1
  1814  1813  1814      1
  1815  1813  1815      1
  1816  1813  1816      1
  1817  1814  1817      1
  1818  1814  1818      1
  1819  1814  1819      1
  1820  1819  1820      1
  1821  1819  1821      1
  1822  1819  1822      1
  1823  1820  1823      1
  1824  1820  1824      1
  1825  1820  1825      1
  1826  1825  1826      1
  1827  1825  1827      1
  1828  1825  1828      1
  1829  1826  1829      1
  1830  1826  1830      1
  1831  1826  1831      1
  1832  1831  1832      1
  1833  1831  1833      1
  1834  1831  1834      1
  1835  1832  1835      1
  1836  1832  1836      1
  1837  1832  1837      1
  1838  1837  1838      1
  1839  1837  1839      1
  1840  1837  1840      1
  1841  1838  1841      1
  1842  1838  1842      1
  1843  1838  1843      1
  1844  1843  1844      1
  1845  1843  1845      1
  1846  1843  1846      1
  1847  1844  1847      1
  1848  1844  1848      1
  1849  1844  1849      1
  1850  1849  1850      1
  1851  1849  1851      1
  1852  1849  1852      1
  1853  1850  1853      1
  1854  1850  1854      1
  1855  1850  1855      1
  1856  1855  1856      1
  1857  1855  1857      1
  1858  1855  1858      1
  1859  1856  1859      1
  1860  1856  1860      1
  1861  1856  1861      1
  1862  1861  1862      1
  1863  1861  1863      1
  1864  1861  1864      1
  1865  1862  1865      1
  1866  1862  1866      1
  1867  1862  1867      1
  1868  1867  1868      1
  1869  1867  1869      1
  1870  1867  1870      1
  1871  1868  1871      1
  1872  1868  1872      1
  1873  1868  1873      1
  1874  1873  1874      1
  1875  1873  1875      1
  1876  1873  1876      1
  1877  1874  1877      1
  1878  1874  1878      1
  1879  1874  1879      1
  1880  1879  1880      1
  1881  1879  1881      1
  1882  1879  1882      1
  1883  1880  1883      1
  1884  1880  1884      1
  1885  1880  1885      1
  1886  1885  1886      1
  1887  1885  1887      1
  1888  1885  1888      1
  1889  1886  1889      1
  1890  1886  1890      1
  1891  1886  1891      1
  1892  1891  1892      1
  1893  1891  1893      1
  1894  1891  1894      1
  1895  1892  1895      1
  1896  1892  1896      1
  1897  1892  1897      1
  1898  1897  1898      1
  1899  1897  1899      1
  1900  1897  1900      1
  1901  1898  1901      1
  1902  1898  1902      1
  1903  1898  1903      1
  1904  1903  1904      1
  1905  1903  1905      1
  1906  1903  1906      1
  1907  1904  1907      1
  1908  1904  1908      1
  1909  1904  1909      1
  1910  1909  1910      1
  1911  1909  1911      1
  1912  1909  1912      1
  1913  1910  1913      1
  1914  1910  1914      1
  1915  1910  1915      1
  1916  1915  1916      1
  1917  1915  1917      1
  1918  1915  1918      1
  1919  1916  1919      1
  1920  1916  1920      1
  1921  1916  1921      1
  1922  1921  1922      1
  1923  1921  1923      1
  1924  1921  1924      1
  1925  1922  1925      1
  1926  1922  1926      1
  1927  1922  1927      1
  1928  1927  1928      1
  1929  1927  1929      1
  1930  1927  1930      1
  1931  1928  1931      1
  1932  1928  1932      1
  1933  1928  1933      1
  1934  1933  1934      1
  1935  1933  1935      1
  1936  1933  1936      1
  1937  1934  1937      1
  1938  1934  1938      1
  1939  1934  1939      1
  1940  1939  1940      1
  1941  1939  1941      1
  1942  1939  1942      1
  1943  1940  1943      1
  1944  1940  1944      1
  1945  1940  1945      1
  1946  1945  1946      1
  1947  1945  1947      1
  1948  1945  1948      1
  1949  1946  1949      1
  1950  1946  1950      1
  1951  1946  1951      1
  1952  1951  1952      1
  1953  1951  1953      1
  1954  1951  1954      1
  1955  1952  1955      1
  1956  1952  1956      1
  1957  1952  1957      1
  1958  1957  1958      1
  1959  1957  1959      1
  1960  1957  1960      1
  1961  1958  1961      1
  1962  1958  1962      1
  1963  1958  1963      1
  1964  1963  1964      1
  1965  1963  1965      1
  1966  1963  1966      1
  1967  1964  1967      1
  1968  1964  1968      1
  1969  1964  1969      1
  1970  1969  1970      1
  1971  1969  1971      1
  1972  1969  1972      1
  1973  1970  1973      1
  1974  1970  1974      1
  1975  1970  1975      1
  1976  1975  1976      1
  1977  1975  1977      1
  1978  1975  1978      1
  1979  1976  1979      1
  1980  1976  1980      1
  1981  1976  1981      1
  1982  1981  1982      1
  1983  1981  1983      1
  1984  1981  1984      1
  1985  1982  1985      1
  1986  1982  1986      1
  1987  1982  1987      1
  1988  1987  1988      1
  1989  1987  1989      1
  1990  1987  1990      1
  1991  1988  1991      1
  1992  1988  1992      1
  1993  1988  1993      1
  1994  1993  1994      1
  1995  1993  1995      1
  1996  1993  1996      1
  1997  1994  1997      1
  1998  1994  1998      1
  1999  1994  1999      1
  2000  1999  2000      1
  2001  1999  2001      1
  2002  1999  2002      1
  2003  2000  2003      1
  2004  2000  2004      1
  2005  2000  2005      1
  2006  2005  2006      1
  2007  2005  2007      1
  2008  2005  2008      1
  2009  2006  2009      1
  2010  2006  2010      1
  2011  2006  2011      1
  2012  2011  2012      1
  2013  2011  2013      1
  2014  2011  2014      1
  2015  2012  2015      1
  2016  2012  2016      1
  2017  2012  2017      1
  2018  2017  2018      1
  2019  2017  2019      1
  2020  2017  2020      1
  2021  2018  2021      1
  2022  2018  2022      1
  2023  2018  2023      1
  2024  2023  2024      1
  2025  2023  2025      1
  2026  2023  2026      1
  2027  2024  2027      1
  2028  2024  2028      1
  2029  2024  2029      1
  2030  2029  2030      1
  2031  2029  2031      1
  2032  2029  2032      1
  2033  2030  2033      1
  2034  2030  2034      1
  2035  2030  2035      1
  2036  2035  2036      1
  2037  2035  2037      1
  2038  2035  2038      1
  2039  2036  2039      1
  2040  2036  2040      1
  2041  2036  2041      1
  2042  2041  2042      1
  2043  2041  2043      1
  2044  2041  2044      1
  2045  2042  2045      1
  2046  2042  2046      1
  2047  2042  2047      1
  2048  2047  2048      1
  2049  2047  2049      1
  2050  2047  2050      1
  2051  2048  2051      1
  2052  2048  2052      1
  2053  2048  2053      1
  2054  2053  2054      1
  2055  2053  2055      1
  2056  2053  2056      1
  2057  2054  2057      1
  2058  2054  2058      1
  2059  2054  2059      1
  2060  2059  2060      1
  2061  2059  2061      1
  2062  2059  2062      1
  2063  2060  2063      1
  2064  2060  2064      1
  2065  2060  2065      1
  2066  2065  2066      1
  2067  2065  2067      1
  2068  2065  2068      1
  2069  2066  2069      1
  2070  2066  2070      1
  2071  2066  2071      1
  2072  2071  2072      1
  2073  2071  2073      1
  2074  2071  2074      1
  2075  2072  2075      1
  2076  2072  2076      1
  2077  2072  2077      1
  2078  2077  2078      1
  2079  2077  2079      1
  2080  2077  2080      1
  2081  2078  2081      1
  2082  2078  2082      1
  2083  2078  2083      1
  2084  2083  2084      1
  2085  2083  2085      1
  2086  2083  2086      1
  2087  2084  2087      1
  2088  2084  2088      1
  2089  2084  2089      1
  2090  2089  2090      1
  2091  2089  2091      1
  2092  2089  2092      1
  2093  2090  2093      1
  2094  2090  2094      1
  2095  2090  2095      1
  2096  2095  2096      1
  2097  2095  2097      1
  2098  2095  2098      1
  2099  2096  2099      1
  2100  2096  2100      1
  2101  2096  2101      1
  2102  2101  2102      1
  2103  2101  2103      1
  2104  2101  2104      1
  2105  2102  2105      1
  2106  2102  2106      1
  2107  2102  2107      1
  2108  2107  2108      1
  2109  2107  2109      1
  2110  2107  2110      1
  2111  2108  2111      1
  2112  2108  2112      1
  2113  2108  2113      1
  2114  2113  2114      1
  2115  2113  2115      1
  2116  2113  2116      1
  2117  2114  2117      1
  2118  2114  2118      1
  2119  2114  2119      1
  2120  2119  2120      1
  2121  2119  2121      1
  2122  2119  2122      1
  2123  2120  2123      1
  2124  2120  2124      1
  2125  2120  2125      1
  2126  2125  2126      1
  2127  2125  2127      1
  2128  2125  2128      1
  2129  2126  2129      1
  2130  2126  2130      1
  2131  2126  2131      1
  2132  2131  2132      1
  2133  2131  2133      1
  2134  2131  2134      1
  2135  2132  2135      1
  2136  2132  2136      1
  2137  2132  2137      1
  2138  2137  2138      1
  2139  2137  2139      1
  2140  2137  2140      1
  2141  2138  2141      1
  2142  2138  2142      1
  2143  2138  2143      1
  2144  2143  2144      1
  2145  2143  2145      1
  2146  2143  2146      1
  2147  2144  2147      1
  2148  2144  2148      1
  2149  2144  2149      1
  2150  2149  2150      1
  2151  2149  2151      1
  2152  2149  2152      1
  2153  2150  2153      1
  2154  2150  2154      1
  2155  2150  2155      1
  2156  2155  2156      1
  2157  2155  2157      1
  2158  2155  2158      1
  2159  2156  2159      1
  2160  2156  2160      1
  2161  2156  2161      1
  2162  2161  2162      1
  2163  2161  2163      1
  2164  2161  2164      1
  2165  2162  2165      1
  2166  2162  2166      1
  2167  2162  2167      1
  2168  2167  2168      1
  2169  2167  2169      1
  2170  2167  2170      1
  2171  2168  2171      1
  2172  2168  2172      1
  2173  2168  2173      1
  2174  2173  2174      1
  2175  2173  2175      1
  2176  2173  2176      1
  2177  2174  2177      1
  2178  2174  2178      1
  2179  2174  2179      1
  2180  2179  2180      1
  2181  2179  2181      1
  2182  2179  2182      1
  2183  2180  2183      1
  2184  2180  2184      1
  2185  2180  2185      1
  2186  2185  2186      1
  2187  2185  2187      1
  2188  2185  2188      1
  2189  2186  2189      1
  2190  2186  2190      1
  2191  2186  2191      1
  2192  2191  2192      1
  2193  2191  2193      1
  2194  2191  2194      1
  2195  2192  2195      1
  2196  2192  2196      1
  2197  2192  2197      1
  2198  2197  2198      1
  2199  2197  2199      1
  2200  2197  2200      1
  2201  2198  2201      1
  2202  2198  2202      1
  2203  2198  2203      1
  2204  2203  2204      1
  2205  2203  2205      1
  2206  2203  2206      1
  2207  2204  2207      1
  2208  2204  2208      1
  2209  2204  2209      1
  2210  2209  2210      1
  2211  2209  2211      1
  2212  2209  2212      1
  2213  2210  2213      1
  2214  2210  2214      1
  2215  2210  2215      1
  2216  2215  2216      1
  2217  2215  2217      1
  2218  2215  2218      1
  2219  2216  2219      1
  2220  2216  2220      1
  2221  2216  2221      1
  2222  2221  2222      1
  2223  2221  2223      1
  2224  2221  2224      1
  2225  2222  2225      1
  2226  2222  2226      1
  2227  2222  2227      1
  2228  2227  2228      1
  2229  2227  2229      1
  2230  2227  2230      1
  2231  2228  2231      1
  2232  2228  2232      1
  2233  2228  2233      1
  2234  2233  2234      1
  2235  2233  2235      1
  2236  2233  2236      1
  2237  2234  2237      1
  2238  2234  2238      1
  2239  2234  2239      1
  2240  2239  2240      1
  2241  2239  2241      1
  2242  2239  2242      1
  2243  2240  2243      1
  2244  2240  2244      1
  2245  2240  2245      1
  2246  2245  2246      1
  2247  2245  2247      1
  2248  2245  2248      1
  2249  2246  2249      1
  2250  2246  2250      1
  2251  2246  2251      1
  2252  2251  2252      1
  2253  2251  2253      1
  2254  2251  2254      1
  2255  2252  2255      1
  2256  2252  2256      1
  2257  2252  2257      1
  2258  2257  2258      1
  2259  2257  2259      1
  2260  2257  2260      1
  2261  2258  2261      1
  2262  2258  2262      1
  2263  2258  2263      1
  2264  2263  2264      1
  2265  2263  2265      1
  2266  2263  2266      1
  2267  2264  2267      1
  2268  2264  2268      1
  2269  2264  2269      1
  2270  2269  2270      1
  2271  2269  2271      1
  2272  2269  2272      1
  2273  2270  2273      1
  2274  2270  2274      1
  2275  2270  2275      1
  2276  2275  2276      1
  2277  2275  2277      1
  2278  2275  2278      1
  2279  2276  2279      1
  2280  2276  2280      1
  2281  2276  2281      1
  2282  2281  2282      1
  2283  2281  2283      1
  2284  2281  2284      1
  2285  2282  2285      1
  2286  2282  2286      1
  2287  2282  2287      1
  2288  2287  2288      1
  2289  2287  2289      1
  2290  2287  2290      1
  2291  2288  2291      1
  2292  2288  2292      1
  2293  2288  2293      1
  2294  2293  2294      1
  2295  2293  2295      1
  2296  2293  2296      1
  2297  2294  2297      1
  2298  2294  2298      1
  2299  2294  2299      1
  2300  2299  2300      1
  2301  2299  2301      1
  2302  2299  2302      1
  2303  2300  2303      1
  2304  2300  2304      1
  2305  2300  2305      1
  2306  2305  2306      1
  2307  2305  2307      1
  2308  2305  2308      1
  2309  2306  2309      1
  2310  2306  2310      1
  2311  2306  2311      1
  2312  2311  2312      1
  2313  2311  2313      1
  2314  2311  2314      1
  2315  2312  2315      1
  2316  2312  2316      1
  2317  2312  2317      1
  2318  2317  2318      1
  2319  2317  2319      1
  2320  2317  2320      1
  2321  2318  2321      1
  2322  2318  2322      1
  2323  2318  2323      1
  2324  2323  2324      1
  2325  2323  2325      1
  2326  2323  2326      1
  2327  2324  2327      1
  2328  2324  2328      1
  2329  2324  2329      1
  2330  2329  2330      1
  2331  2329  2331      1
  2332  2329  2332      1
  2333  2330  2333      1
  2334  2330  2334      1
  2335  2330  2335      1
  2336  2335  2336      1
  2337  2335  2337      1
  2338  2335  2338      1
  2339  2336  2339      1
  2340  2336  2340      1
  2341  2336  2341      1
  2342  2341  2342      1
  2343  2341  2343      1
  2344  2341  2344      1
  2345  2342  2345      1
  2346  2342  2346      1
  2347  2342  2347      1
  2348  2347  2348      1
  2349  2347  2349      1
  2350  2347  2350      1
  2351  2348  2351      1
  2352  2348  2352      1
  2353  2348  2353      1
  2354  2353  2354      1
  2355  2353  2355      1
  2356  2353  2356      1
  2357  2354  2357      1
  2358  2354  2358      1
  2359  2354  2359      1
  2360  2359  2360      1
  2361  2359  2361      1
  2362  2359  2362      1
  2363  2360  2363      1
  2364  2360  2364      1
  2365  2360  2365      1
  2366  2365  2366      1
  2367  2365  2367      1
  2368  2365  2368      1
  2369  2366  2369      1
  2370  2366  2370      1
  2371  2366  2371      1
  2372  2371  2372      1
  2373  2371  2373      1
  2374  2371  2374      1
  2375  2372  2375      1
  2376  2372  2376      1
  2377  2372  2377      1
  2378  2377  2378      1
  2379  2377  2379      1
  2380  2377  2380      1
  2381  2378  2381      1
  2382  2378  2382      1
  2383  2378  2383      1
  2384  2383  2384      1
  2385  2383  2385      1
  2386  2383  2386      1
  2387  2384  2387      1
  2388  2384  2388      1
  2389  2384  2389      1
  2390  2389  2390      1
  2391  2389  2391      1
  2392  2389  2392      1
  2393  2390  2393      1
  2394  2390  2394      1
  2395  2390  2395      1
  2396  2395  2396      1
  2397  2395  2397      1
  2398  2395  2398      1
  2399  2396  2399      1
  2400  2396  2400      1
  2401  2396  2401      1
  2402  2401  2402      1
  2403  2401  2403      1
  2404  2401  2404      1
  2405  2402  2405      1
  2406  2402  2406      1
  2407  2402  2407      1
  2408  2407  2408      1
  2409  2407  2409      1
  2410  2407  2410      1
  2411  2408  2411      1
  2412  2408  2412      1
  2413  2408  2413      1
  2414  2413  2414      1
  2415  2413  2415      1
  2416  2413  2416      1
  2417  2414  2417      1
  2418  2414  2418      1
  2419  2414  2419      1
  2420  2419  2420      1
  2421  2419  2421      1
  2422  2419  2422      1
  2423  2420  2423      1
  2424  2420  2424      1
  2425  2420  2425      1
  2426  2425  2426      1
  2427  2425  2427      1
  2428  2425  2428      1
  2429  2426  2429      1
  2430  2426  2430      1
  2431  2426  2431      1
  2432  2431  2432      1
  2433  2431  2433      1
  2434  2431  2434      1
  2435  2432  2435      1
  2436  2432  2436      1
  2437  2432  2437      1
  2438  2437  2438      1
  2439  2437  2439      1
  2440  2437  2440      1
  2441  2438  2441      1
  2442  2438  2442      1
  2443  2438  2443      1
  2444  2443  2444      1
  2445  2443  2445      1
  2446  2443  2446      1
  2447  2444  2447      1
  2448  2444  2448      1
  2449  2444  2449      1
  2450  2449  2450      1
  2451  2449  2451      1
  2452  2449  2452      1
  2453  2450  2453      1
  2454  2450  2454      1
  2455  2450  2455      1
  2456  2455  2456      1
  2457  2455  2457      1
  2458  2455  2458      1
  2459  2456  2459      1
  2460  2456  2460      1
  2461  2456  2461      1
  2462  2461  2462      1
  2463  2461  2463      1
  2464  2461  2464      1
  2465  2462  2465      1
  2466  2462  2466      1
  2467  2462  2467      1
  2468  2467  2468      1
  2469  2467  2469      1
  2470  2467  2470      1
  2471  2468  2471      1
  2472  2468  2472      1
  2473  2468  2473      1
  2474  2473  2474      1
  2475  2473  2475      1
  2476  2473  2476      1
  2477  2474  2477      1
  2478  2474  2478      1
  2479  2474  2479      1
  2480  2479  2480      1
  2481  2479  2481      1
  2482  2479  2482      1
  2483  2480  2483      1
  2484  2480  2484      1
  2485  2480  2485      1
  2486  2485  2486      1
  2487  2485  2487      1
  2488  2485  2488      1
  2489  2486  2489      1
  2490  2486  2490      1
  2491  2486  2491      1
  2492  2491  2492      1
  2493  2491  2493      1
  2494  2491  2494      1
  2495  2492  2495      1
  2496  2492  2496      1
  2497  2492  2497      1
  2498  2497  2498      1
  2499  2497  2499      1
  2500  2497  2500      1
  2501  2498  2501      1
  2502  2498  2502      1
  2503  2498  2503      1
  2504  2503  2504      1
  2505  2503  2505      1
  2506  2503  2506      1
  2507  2504  2507      1
  2508  2504  2508      1
  2509  2504  2509      1
  2510  2509  2510      1
  2511  2509  2511      1
  2512  2509  2512      1
  2513  2510  2513      1
  2514  2510  2514      1
  2515  2510  2515      1
  2516  2515  2516      1
  2517  2515  2517      1
  2518  2515  2518      1
  2519  2516  2519      1
  2520  2516  2520      1
  2521  2516  2521      1
  2522  2521  2522      1
  2523  2521  2523      1
  2524  2521  2524      1
  2525  2522  2525      1
  2526  2522  2526      1
  2527  2522  2527      1
  2528  2527  2528      1
  2529  2527  2529      1
  2530  2527  2530      1
  2531  2528  2531      1
  2532  2528  2532      1
  2533  2528  2533      1
  2534  2533  2534      1
  2535  2533  2535      1
  2536  2533  2536      1
  2537  2534  2537      1
  2538  2534  2538      1
  2539  2534  2539      1
  2540  2539  2540      1
  2541  2539  2541      1
  2542  2539  2542      1
  2543  2540  2543      1
  2544  2540  2544      1
  2545  2540  2545      1
  2546  2545  2546      1
  2547  2545  2547      1
  2548  2545  2548      1
  2549  2546  2549      1
  2550  2546  2550      1
  2551  2546  2551      1
  2552  2551  2552      1
  2553  2551  2553      1
  2554  2551  2554      1
  2555  2552  2555      1
  2556  2552  2556      1
  2557  2552  2557      1
  2558  2557  2558      1
  2559  2557  2559      1
  2560  2557  2560      1
  2561  2558  2561      1
  2562  2558  2562      1
  2563  2558  2563      1
  2564  2563  2564      1
  2565  2563  2565      1
  2566  2563  2566      1
  2567  2564  2567      1
  2568  2564  2568      1
  2569  2564  2569      1
  2570  2569  2570      1
  2571  2569  2571      1
  2572  2569  2572      1
  2573  2570  2573      1
  2574  2570  2574      1
  2575  2570  2575      1
  2576  2575  2576      1
  2577  2575  2577      1
  2578  2575  2578      1
  2579  2576  2579      1
  2580  2576  2580      1
  2581  2576  2581      1
  2582  2581  2582      1
  2583  2581  2583      1
  2584  2581  2584      1
  2585  2582  2585      1
  2586  2582  2586      1
  2587  2582  2587      1
  2588  2587  2588      1
  2589  2587  2589      1
  2590  2587  2590      1
  2591  2588  2591      1
  2592  2588  2592      1
  2593  2588  2593      1
  2594  2593  2594      1
  2595  2593  2595      1
  2596  2593  2596      1
  2597  2594  2597      1
  2598  2594  2598      1
  2599  2594  2599      1
  2600  2599  2600      1
  2601  2599  2601      1
  2602  2599  2602      1
  2603  2600  2603      1
  2604  2600  2604      1
  2605  2600  2605      1
  2606  2605  2606      1
  2607  2605  2607      1
  2608  2605  2608      1
  2609  2606  2609      1
  2610  2606  2610      1
  2611  2606  2611      1
  2612  2611  2612      1
  2613  2611  2613      1
  2614  2611  2614      1
  2615  2612  2615      1
  2616  2612  2616      1
  2617  2612  2617      1
  2618  2617  2618      1
  2619  2617  2619      1
  2620  2617  2620      1
  2621  2618  2621      1
  2622  2618  2622      1
  2623  2618  2623      1
  2624  2623  2624      1
  2625  2623  2625      1
  2626  2623  2626      1
  2627  2624  2627      1
  2628  2624  2628      1
  2629  2624  2629      1
  2630  2629  2630      1
  2631  2629  2631      1
  2632  2629  2632      1
  2633  2630  2633      1
  2634  2630  2634      1
  2635  2630  2635      1
  2636  2635  2636      1
  2637  2635  2637      1
  2638  2635  2638      1
  2639  2636  2639      1
  2640  2636  2640      1
  2641  2636  2641      1
  2642  2641  2642      1
  2643  2641  2643      1
  2644  2641  2644      1
  2645  2642  2645      1
  2646  2642  2646      1
  2647  2642  2647      1
  2648  2647  2648      1
  2649  2647  2649      1
  2650  2647  2650      1
  2651  2648  2651      1
  2652  2648  2652      1
  2653  2648  2653      1
  2654  2653  2654      1
  2655  2653  2655      1
  2656  2653  2656      1
  2657  2654  2657      1
  2658  2654  2658      1
  2659  2654  2659      1
  2660  2659  2660      1
  2661  2659  2661      1
  2662  2659  2662      1
  2663  2660  2663      1
  2664  2660  2664      1
  2665  2660  2665      1
  2666  2665  2666      1
  2667  2665  2667      1
  2668  2665  2668      1
  2669  2666  2669      1
  2670  2666  2670      1
  2671  2666  2671      1
  2672  2671  2672      1
  2673  2671  2673      1
  2674  2671  2674      1
  2675  2672  2675      1
  2676  2672  2676      1
  2677  2672  2677      1
  2678  2677  2678      1
  2679  2677  2679      1
  2680  2677  2680      1
  2681  2678  2681      1
  2682  2678  2682      1
  2683  2678  2683      1
  2684  2683  2684      1
  2685  2683  2685      1
  2686  2683  2686      1
  2687  2684  2687      1
  2688  2684  2688      1
  2689  2684  2689      1
  2690  2689  2690      1
  2691  2689  2691      1
  2692  2689  2692      1
  2693  2690  2693      1
  2694  2690  2694      1
  2695  2690  2695      1
  2696  2695  2696      1
  2697  2695  2697      1
  2698  2695  2698      1
  2699  2696  2699      1
  2700  2696  2700      1
  2701  2696  2701      1
  2702  2701  2702      1
  2703  2701  2703      1
  2704  2701  2704      1
  2705  2702  2705      1
  2706  2702  2706      1
  2707  2702  2707      1
  2708  2707  2708      1
  2709  2707  2709      1
  2710  2707  2710      1
  2711  2708  2711      1
  2712  2708  2712      1
  2713  2708  2713      1
  2714  2713  2714      1
  2715  2713  2715      1
  2716  2713  2716      1
  2717  2714  2717      1
  2718  2714  2718      1
  2719  2714  2719      1
  2720  2719  2720      1
  2721  2719  2721      1
  2722  2719  2722      1
  2723  2720  2723      1
  2724  2720  2724      1
  2725  2720  2725      1
  2726  2725  2726      1
  2727  2725  2727      1
  2728  2725  2728      1
  2729  2726  2729      1
  2730  2726  2730      1
  2731  2726  2731      1
  2732  2731  2732      1
  2733  2731  2733      1
  2734  2731  2734      1
  2735  2732  2735      1
  2736  2732  2736      1
  2737  2732  2737      1
  2738  2737  2738      1
  2739  2737  2739      1
  2740  2737  2740      1
  2741  2738  2741      1
  2742  2738  2742      1
  2743  2738  2743      1
  2744  2743  2744      1
  2745  2743  2745      1
  2746  2743  2746      1
  2747  2744  2747      1
  2748  2744  2748      1
  2749  2744  2749      1
  2750  2749  2750      1
  2751  2749  2751      1
  2752  2749  2752      1
  2753  2750  2753      1
  2754  2750  2754      1
  2755  2750  2755      1
  2756  2755  2756      1
  2757  2755  2757      1
  2758  2755  2758      1
  2759  2756  2759      1
  2760  2756  2760      1
  2761  2756  2761      1
  2762  2761  2762      1
  2763  2761  2763      1
  2764  2761  2764      1
  2765  2762  2765      1
  2766  2762  2766      1
  2767  2762  2767      1
  2768  2767  2768      1
  2769  2767  2769      1
  2770  2767  2770      1
  2771  2768  2771      1
  2772  2768  2772      1
  2773  2768  2773      1
  2774  2773  2774      1
  2775  2773  2775      1
  2776  2773  2776      1
  2777  2774  2777      1
  2778  2774  2778      1
  2779  2774  2779      1
  2780  2779  2780      1
  2781  2779  2781      1
  2782  2779  2782      1
  2783  2780  2783      1
  2784  2780  2784      1
  2785  2780  2785      1
  2786  2785  2786      1
  2787  2785  2787      1
  2788  2785  2788      1
  2789  2786  2789      1
  2790  2786  2790      1
  2791  2786  2791      1
  2792  2791  2792      1
  2793  2791  2793      1
  2794  2791  2794      1
  2795  2792  2795      1
  2796  2792  2796      1
  2797  2792  2797      1
  2798  2797  2798      1
  2799  2797  2799      1
  2800  2797  2800      1
  2801  2798  2801      1
  2802  2798  2802      1
  2803  2798  2803      1
  2804  2803  2804      1
  2805  2803  2805      1
  2806  2803  2806      1
  2807  2804  2807      1
  2808  2804  2808      1
  2809  2804  2809      1
  2810  2809  2810      1
  2811  2809  2811      1
  2812  2809  2812      1
  2813  2810  2813      1
  2814  2810  2814      1
  2815  2810  2815      1
  2816  2815  2816      1
  2817  2815  2817      1
  2818  2815  2818      1
  2819  2816  2819      1
  2820  2816  2820      1
  2821  2816  2821      1
  2822  2821  2822      1
  2823  2821  2823      1
  2824  2821  2824      1
  2825  2822  2825      1
  2826  2822  2826      1
  2827  2822  2827      1
  2828  2827  2828      1
  2829  2827  2829      1
  2830  2827  2830      1
  2831  2828  2831      1
  2832  2828  2832      1
  2833  2828  2833      1
  2834  2833  2834      1
  2835  2833  2835      1
  2836  2833  2836      1
  2837  2834  2837      1
  2838  2834  2838      1
  2839  2834  2839      1
  2840  2839  2840      1
  2841  2839  2841      1
  2842  2839  2842      1
  2843  2840  2843      1
  2844  2840  2844      1
  2845  2840  2845      1
  2846  2845  2846      1
  2847  2845  2847      1
  2848  2845  2848      1
  2849  2846  2849      1
  2850  2846  2850      1
  2851  2846  2851      1
  2852  2851  2852      1
  2853  2851  2853      1
  2854  2851  2854      1
  2855  2852  2855      1
  2856  2852  2856      1
  2857  2852  2857      1
  2858  2857  2858      1
  2859  2857  2859      1
  2860  2857  2860      1
  2861  2858  2861      1
  2862  2858  2862      1
  2863  2858  2863      1
  2864  2863  2864      1
  2865  2863  2865      1
  2866  2863  2866      1
  2867  2864  2867      1
  2868  2864  2868      1
  2869  2864  2869      1
  2870  2869  2870      1
  2871  2869  2871      1
  2872  2869  2872      1
  2873  2870  2873      1
  2874  2870  2874      1
  2875  2870  2875      1
  2876  2875  2876      1
  2877  2875  2877      1
  2878  2875  2878      1
  2879  2876  2879      1
  2880  2876  2880      1
  2881  2876  2881      1
  2882  2881  2882      1
  2883  2881  2883      1
  2884  2881  2884      1
  2885  2882  2885      1
  2886  2882  2886      1
  2887  2882  2887      1
  2888  2887  2888      1
  2889  2887  2889      1
  2890  2887  2890      1
  2891  2888  2891      1
  2892  2888  2892      1
  2893  2888  2893      1
  2894  2893  2894      1
  2895  2893  2895      1
  2896  2893  2896      1
  2897  2894  2897      1
  2898  2894  2898      1
  2899  2894  2899      1
  2900  2899  2900      1
  2901  2899  2901      1
  2902  2899  2902      1
  2903  2900  2903      1
  2904  2900  2904      1
  2905  2900  2905      1
  2906  2905  2906      1
  2907  2905  2907      1
  2908  2905  2908      1
  2909  2906  2909      1
  2910  2906  2910      1
  2911  2906  2911      1
  2912  2911  2912      1
  2913  2911  2913      1
  2914  2911  2914      1
  2915  2912  2915      1
  2916  2912  2916      1
  2917  2912  2917      1
  2918  2917  2918      1
  2919  2917  2919      1
  2920  2917  2920      1
  2921  2918  2921      1
  2922  2918  2922      1
  2923  2918  2923      1
  2924  2923  2924      1
  2925  2923  2925      1
  2926  2923  2926      1
  2927  2924  2927      1
  2928  2924  2928      1
  2929  2924  2929      1
  2930  2929  2930      1
  2931  2929  2931      1
  2932  2929  2932      1
  2933  2930  2933      1
  2934  2930  2934      1
  2935  2930  2935      1
  2936  2935  2936      1
  2937  2935  2937      1
  2938  2935  2938      1
  2939  2936  2939      1
  2940  2936  2940      1
  2941  2936  2941      1
  2942  2941  2942      1
  2943  2941  2943      1
  2944  2941  2944      1
  2945  2942  2945      1
  2946  2942  2946      1
  2947  2942  2947      1
  2948  2947  2948      1
  2949  2947  2949      1
  2950  2947  2950      1
  2951  2948  2951      1
  2952  2948  2952      1
  2953  2948  2953      1
  2954  2953  2954      1
  2955  2953  2955      1
  2956  2953  2956      1
  2957  2954  2957      1
  2958  2954  2958      1
  2959  2954  2959      1
  2960  2959  2960      1
  2961  2959  2961      1
  2962  2959  2962      1
  2963  2960  2963      1
  2964  2960  2964      1
  2965  2960  2965      1
  2966  2965  2966      1
  2967  2965  2967      1
  2968  2965  2968      1
  2969  2966  2969      1
  2970  2966  2970      1
  2971  2966  2971      1
  2972  2971  2972      1
  2973  2971  2973      1
  2974  2971  2974      1
  2975  2972  2975      1
  2976  2972  2976      1
  2977  2972  2977      1
  2978  2977  2978      1
  2979  2977  2979      1
  2980  2977  2980      1
  2981  2978  2981      1
  2982  2978  2982      1
  2983  2978  2983      1
  2984  2983  2984      1
  2985  2983  2985      1
  2986  2983  2986      1
  2987  2984  2987      1
  2988  2984  2988      1
  2989  2984  2989      1
  2990  2989  2990      1
  2991  2989  2991      1
  2992  2989  2992      1
  2993  2990  2993      1
  2994  2990  2994      1
  2995  2990  2995      1
  2996  2995  2996      1
  2997  2995  2997      1
  2998  2995  2998      1
  2999  2996  2999      1
  3000  2996  3000      1
  3001  2996  3001      1
  3002  3001  3002      1
  3003  3001  3003      1
  3004  3001  3004      1
  3005  3002  3005      1
  3006  3002  3006      1
  3007  3002  3007      1
  3008  3007  3008      1
  3009  3007  3009      1
  3010  3007  3010      1
  3011  3008  3011      1
  3012  3008  3012      1
  3013  3008  3013      1
  3014  3013  3014      1
  3015  3013  3015      1
  3016  3013  3016      1
  3017  3014  3017      1
  3018  3014  3018      1
  3019  3014  3019      1
  3020  3019  3020      1
  3021  3019  3021      1
  3022  3019  3022      1
  3023  3020  3023      1
  3024  3020  3024      1
  3025  3020  3025      1
  3026  3025  3026      1
  3027  3025  3027      1
  3028  3025  3028      1
  3029  3026  3029      1
  3030  3026  3030      1
  3031  3026  3031      1
  3032  3031  3032      1
  3033  3031  3033      1
  3034  3031  3034      1
  3035  3032  3035      1
  3036  3032  3036      1
  3037  3032  3037      1
  3038  3037  3038      1
  3039  3037  3039      1
  3040  3037  3040      1
  3041  3038  3041      1
  3042  3038  3042      1
  3043  3038  3043      1
  3044  3043  3044      1
  3045  3043  3045      1
  3046  3043  3046      1
  3047  3044  3047      1
  3048  3044  3048      1
  3049  3044  3049      1
  3050  3049  3050      1
  3051  3049  3051      1
  3052  3049  3052      1
  3053  3050  3053      1
  3054  3050  3054      1
  3055  3050  3055      1
  3056  3055  3056      1
  3057  3055  3057      1
  3058  3055  3058      1
  3059  3056  3059      1
  3060  3056  3060      1
  3061  3056  3061      1
  3062  3061  3062      1
  3063  3061  3063      1
  3064  3061  3064      1
  3065  3062  3065      1
  3066  3062  3066      1
  3067  3062  3067      1
  3068  3067  3068      1
  3069  3067  3069      1
  3070  3067  3070      1
  3071  3068  3071      1
  3072  3068  3072      1
  3073  3068  3073      1
  3074  3073  3074      1
  3075  3073  3075      1
  3076  3073  3076      1
  3077  3074  3077      1
  3078  3074  3078      1
  3079  3074  3079      1
  3080  3079  3080      1
  3081  3079  3081      1
  3082  3079  3082      1
  3083  3080  3083      1
  3084  3080  3084      1
  3085  3080  3085      1
  3086  3085  3086      1
  3087  3085  3087      1
  3088  3085  3088      1
  3089  3086  3089      1
  3090  3086  3090      1
  3091  3086  3091      1
  3092  3091  3092      1
  3093  3091  3093      1
  3094  3091  3094      1
  3095  3092  3095      1
  3096  3092  3096      1
  3097  3092  3097      1
  3098  3097  3098      1
  3099  3097  3099      1
  3100  3097  3100      1
  3101  3098  3101      1
  3102  3098  3102      1
  3103  3098  3103      1
  3104  3103  3104      1
  3105  3103  3105      1
  3106  3103  3106      1
  3107  3104  3107      1
  3108  3104  3108      1
  3109  3104  3109      1
  3110  3109  3110      1
  3111  3109  3111      1
  3112  3109  3112      1
  3113  3110  3113      1
  3114  3110  3114      1
  3115  3110  3115      1
  3116  3115  3116      1
  3117  3115  3117      1
  3118  3115  3118      1
  3119  3116  3119      1
  3120  3116  3120      1
  3121  3116  3121      1
  3122  3121  3122      1
  3123  3121  3123      1
  3124  3121  3124      1
  3125  3122  3125      1
  3126  3122  3126      1
  3127  3122  3127      1
  3128  3127  3128      1
  3129  3127  3129      1
  3130  3127  3130      1
  3131  3128  3131      1
  3132  3128  3132      1
  3133  3128  3133      1
  3134  3133  3134      1
  3135  3133  3135      1
  3136  3133  3136      1
  3137  3134  3137      1
  3138  3134  3138      1
  3139  3134  3139      1
  3140  3139  3140      1
  3141  3139  3141      1
  3142  3139  3142      1
  3143  3140  3143      1
  3144  3140  3144      1
  3145  3140  3145      1
  3146  3145  3146      1
  3147  3145  3147      1
  3148  3145  3148      1
  3149  3146  3149      1
  3150  3146  3150      1
  3151  3146  3151      1
  3152  3151  3152      1
  3153  3151  3153      1
  3154  3151  3154      1
  3155  3152  3155      1
  3156  3152  3156      1
  3157  3152  3157      1
  3158  3157  3158      1
  3159  3157  3159      1
  3160  3157  3160      1
  3161  3158  3161      1
  3162  3158  3162      1
  3163  3158  3163      1
  3164  3163  3164      1
  3165  3163  3165      1
  3166  3163  3166      1
  3167  3164  3167      1
  3168  3164  3168      1
  3169  3164  3169      1
  3170  3169  3170      1
  3171  3169  3171      1
  3172  3169  3172      1
  3173  3170  3173      1
  3174  3170  3174      1
  3175  3170  3175      1
  3176  3175  3176      1
  3177  3175  3177      1
  3178  3175  3178      1
  3179  3176  3179      1
  3180  3176  3180      1
  3181  3176  3181      1
  3182  3181  3182      1
  3183  3181  3183      1
  3184  3181  3184      1
  3185  3182  3185      1
  3186  3182  3186      1
  3187  3182  3187      1
  3188  3187  3188      1
  3189  3187  3189      1
  3190  3187  3190      1
  3191  3188  3191      1
  3192  3188  3192      1
  3193  3188  3193      1
  3194  3193  3194      1
  3195  3193  3195      1
  3196  3193  3196      1
  3197  3194  3197      1
  3198  3194  3198      1
  3199  3194  3199      1
  3200  3199  3200      1
  3201  3199  3201      1
  3202  3199  3202      1
  3203  3200  3203      1
  3204  3200  3204      1
  3205  3200  3205      1
  3206  3205  3206      1
  3207  3205  3207      1
  3208  3205  3208      1
  3209  3206  3209      1
  3210  3206  3210      1
  3211  3206  3211      1
  3212  3211  3212      1
  3213  3211  3213      1
  3214  3211  3214      1
  3215  3212  3215      1
  3216  3212  3216      1
  3217  3212  3217      1
  3218  3217  3218      1
  3219  3217  3219      1
  3220  3217  3220      1
  3221  3218  3221      1
  3222  3218  3222      1
  3223  3218  3223      1
  3224  3223  3224      1
  3225  3223  3225      1
  3226  3223  3226      1
  3227  3224  3227      1
  3228  3224  3228      1
  3229  3224  3229      1
  3230  3229  3230      1
  3231  3229  3231      1
  3232  3229  3232      1
  3233  3230  3233      1
  3234  3230  3234      1
  3235  3230  3235      1
  3236  3235  3236      1
  3237  3235  3237      1
  3238  3235  3238      1
  3239  3236  3239      1
  3240  3236  3240      1
  3241  3236  3241      1
  3242  3241  3242      1
  3243  3241  3243      1
  3244  3241  3244      1
  3245  3242  3245      1
  3246  3242  3246      1
  3247  3242  3247      1
  3248  3247  3248      1
  3249  3247  3249      1
  3250  3247  3250      1
  3251  3248  3251      1
  3252  3248  3252      1
  3253  3248  3253      1
  3254  3253  3254      1
  3255  3253  3255      1
  3256  3253  3256      1
  3257  3254  3257      1
  3258  3254  3258      1
  3259  3254  3259      1
  3260  3259  3260      1
  3261  3259  3261      1
  3262  3259  3262      1
  3263  3260  3263      1
  3264  3260  3264      1
  3265  3260  3265      1
  3266  3265  3266      1
  3267  3265  3267      1
  3268  3265  3268      1
  3269  3266  3269      1
  3270  3266  3270      1
  3271  3266  3271      1
  3272  3271  3272      1
  3273  3271  3273      1
  3274  3271  3274      1
  3275  3272  3275      1
  3276  3272  3276      1
  3277  3272  3277      1
  3278  3277  3278      1
  3279  3277  3279      1
  3280  3277  3280      1
  3281  3278  3281      1
  3282  3278  3282      1
  3283  3278  3283      1
  3284  3283  3284      1
  3285  3283  3285      1
  3286  3283  3286      1
  3287  3284  3287      1
  3288  3284  3288      1
  3289  3284  3289      1
  3290  3289  3290      1
  3291  3289  3291      1
  3292  3289  3292      1
  3293  3290  3293      1
  3294  3290  3294      1
  3295  3290  3295      1
  3296  3295  3296      1
  3297  3295  3297      1
  3298  3295  3298      1
  3299  3296  3299      1
  3300  3296  3300      1
  3301  3296  3301      1
  3302  3301  3302      1
  3303  3301  3303      1
  3304  3301  3304      1
  3305  3302  3305      1
  3306  3302  3306      1
  3307  3302  3307      1
  3308  3307  3308      1
  3309  3307  3309      1
  3310  3307  3310      1
  3311  3308  3311      1
  3312  3308  3312      1
  3313  3308  3313      1
  3314  3313  3314      1
  3315  3313  3315      1
  3316  3313  3316      1
  3317  3314  3317      1
  3318  3314  3318      1
  3319  3314  3319      1
  3320  3319  3320      1
  3321  3319  3321      1
  3322  3319  3322      1
  3323  3320  3323      1
  3324  3320  3324      1
  3325  3320  3325      1
  3326  3325  3326      1
  3327  3325  3327      1
  3328  3325  3328      1
  3329  3326  3329      1
  3330  3326  3330      1
  3331  3326  3331      1
  3332  3331  3332      1
  3333  3331  3333      1
  3334  3331  3334      1
  3335  3332  3335      1
  3336  3332  3336      1
  3337  3332  3337      1
  3338  3337  3338      1
  3339  3337  3339      1
  3340  3337  3340      1
  3341  3338  3341      1
  3342  3338  3342      1
  3343  3338  3343      1
  3344  3343  3344      1
  3345  3343  3345      1
  3346  3343  3346      1
  3347  3344  3347      1
  3348  3344  3348      1
  3349  3344  3349      1
  3350  3349  3350      1
  3351  3349  3351      1
  3352  3349  3352      1
  3353  3350  3353      1
  3354  3350  3354      1
  3355  3350  3355      1
  3356  3355  3356      1
  3357  3355  3357      1
  3358  3355  3358      1
  3359  3356  3359      1
  3360  3356  3360      1
  3361  3356  3361      1
  3362  3361  3362      1
  3363  3361  3363      1
  3364  3361  3364      1
  3365  3362  3365      1
  3366  3362  3366      1
  3367  3362  3367      1
  3368  3367  3368      1
  3369  3367  3369      1
  3370  3367  3370      1
  3371  3368  3371      1
  3372  3368  3372      1
  3373  3368  3373      1
  3374  3373  3374      1
  3375  3373  3375      1
  3376  3373  3376      1
  3377  3374  3377      1
  3378  3374  3378      1
  3379  3374  3379      1
  3380  3379  3380      1
  3381  3379  3381      1
  3382  3379  3382      1
  3383  3380  3383      1
  3384  3380  3384      1
  3385  3380  3385      1
  3386  3385  3386      1
  3387  3385  3387      1
  3388  3385  3388      1
  3389  3386  3389      1
  3390  3386  3390      1
  3391  3386  3391      1
  3392  3391  3392      1
  3393  3391  3393      1
  3394  3391  3394      1
  3395  3392  3395      1
  3396  3392  3396      1
  3397  3392  3397      1
  3398  3397  3398      1
  3399  3397  3399      1
  3400  3397  3400      1
  3401  3398  3401      1
  3402  3398  3402      1
  3403  3398  3403      1
  3404  3403  3404      1
  3405  3403  3405      1
  3406  3403  3406      1
  3407  3404  3407      1
  3408  3404  3408      1
  3409  3404  3409      1
  3410  3409  3410      1
  3411  3409  3411      1
  3412  3409  3412      1
  3413  3410  3413      1
  3414  3410  3414      1
  3415  3410  3415      1
  3416  3415  3416      1
  3417  3415  3417      1
  3418  3415  3418      1
  3419  3416  3419      1
  3420  3416  3420      1
  3421  3416  3421      1
  3422  3421  3422      1
  3423  3421  3423      1
  3424  3421  3424      1
  3425  3422  3425      1
  3426  3422  3426      1
  3427  3422  3427      1
  3428  3427  3428      1
  3429  3427  3429      1
  3430  3427  3430      1
  3431  3428  3431      1
  3432  3428  3432      1
  3433  3428  3433      1
  3434  3433  3434      1
  3435  3433  3435      1
  3436  3433  3436      1
  3437  3434  3437      1
  3438  3434  3438      1
  3439  3434  3439      1
  3440  3439  3440      1
  3441  3439  3441      1
  3442  3439  3442      1
  3443  3440  3443      1
  3444  3440  3444      1
  3445  3440  3445      1
  3446  3445  3446      1
  3447  3445  3447      1
  3448  3445  3448      1
  3449  3446  3449      1
  3450  3446  3450      1
  3451  3446  3451      1
  3452  3451  3452      1
  3453  3451  3453      1
  3454  3451  3454      1
  3455  3452  3455      1
  3456  3452  3456      1
  3457  3452  3457      1
  3458  3457  3458      1
  3459  3457  3459      1
  3460  3457  3460      1
  3461  3458  3461      1
  3462  3458  3462      1
  3463  3458  3463      1
  3464  3463  3464      1
  3465  3463  3465      1
  3466  3463  3466      1
  3467  3464  3467      1
  3468  3464  3468      1
  3469  3464  3469      1
  3470  3469  3470      1
  3471  3469  3471      1
  3472  3469  3472      1
  3473  3470  3473      1
  3474  3470  3474      1
  3475  3470  3475      1
  3476  3475  3476      1
  3477  3475  3477      1
  3478  3475  3478      1
  3479  3476  3479      1
  3480  3476  3480      1
  3481  3476  3481      1
  3482  3481  3482      1
  3483  3481  3483      1
  3484  3481  3484      1
  3485  3482  3485      1
  3486  3482  3486      1
  3487  3482  3487      1
  3488  3487  3488      1
  3489  3487  3489      1
  3490  3487  3490      1
  3491  3488  3491      1
  3492  3488  3492      1
  3493  3488  3493      1
  3494  3493  3494      1
  3495  3493  3495      1
  3496  3493  3496      1
  3497  3494  3497      1
  3498  3494  3498      1
  3499  3494  3499      1
  3500  3499  3500      1
  3501  3499  3501      1
  3502  3499  3502      1
  3503  3500  3503      1
  3504  3500  3504      1
  3505  3500  3505      1
  3506  3505  3506      1
  3507  3505  3507      1
  3508  3505  3508      1
  3509  3506  3509      1
  3510  3506  3510      1
  3511  3506  3511      1
  3512  3511  3512      1
  3513  3511  3513      1
  3514  3511  3514      1
  3515  3512  3515      1
  3516  3512  3516      1
  3517  3512  3517      1
  3518  3517  3518      1
  3519  3517  3519      1
  3520  3517  3520      1
  3521  3518  3521      1
  3522  3518  3522      1
  3523  3518  3523      1
  3524  3523  3524      1
  3525  3523  3525      1
  3526  3523  3526      1
  3527  3524  3527      1
  3528  3524  3528      1
  3529  3524  3529      1
  3530  3529  3530      1
  3531  3529  3531      1
  3532  3529  3532      1
  3533  3530  3533      1
  3534  3530  3534      1
  3535  3530  3535      1
  3536  3535  3536      1
  3537  3535  3537      1
  3538  3535  3538      1
  3539  3536  3539      1
  3540  3536  3540      1
  3541  3536  3541      1
  3542  3541  3542      1
  3543  3541  3543      1
  3544  3541  3544      1
  3545  3542  3545      1
  3546  3542  3546      1
  3547  3542  3547      1
  3548  3547  3548      1
  3549  3547  3549      1
  3550  3547  3550      1
  3551  3548  3551      1
  3552  3548  3552      1
  3553  3548  3553      1
  3554  3553  3554      1
  3555  3553  3555      1
  3556  3553  3556      1
  3557  3554  3557      1
  3558  3554  3558      1
  3559  3554  3559      1
  3560  3559  3560      1
  3561  3559  3561      1
  3562  3559  3562      1
  3563  3560  3563      1
  3564  3560  3564      1
  3565  3560  3565      1
  3566  3565  3566      1
  3567  3565  3567      1
  3568  3565  3568      1
  3569  3566  3569      1
  3570  3566  3570      1
  3571  3566  3571      1
  3572  3571  3572      1
  3573  3571  3573      1
  3574  3571  3574      1
  3575  3572  3575      1
  3576  3572  3576      1
  3577  3572  3577      1
  3578  3577  3578      1
  3579  3577  3579      1
  3580  3577  3580      1
  3581  3578  3581      1
  3582  3578  3582      1
  3583  3578  3583      1
  3584  3583  3584      1
  3585  3583  3585      1
  3586  3583  3586      1
  3587  3584  3587      1
  3588  3584  3588      1
  3589  3584  3589      1
  3590  3589  3590      1
  3591  3589  3591      1
  3592  3589  3592      1
  3593  3590  3593      1
  3594  3590  3594      1
  3595  3590  3595      1
  3596  3595  3596      1
  3597  3595  3597      1
  3598  3595  3598      1
  3599  3596  3599      1
  3600  3596  3600      1
  3601  3596  3601      1
  3602  3601  3602      1
  3603  3601  3603      1
  3604  3601  3604      1
  3605  3602  3605      1
  3606  3602  3606      1
  3607  3602  3607      1
  3608  3607  3608      1
  3609  3607  3609      1
  3610  3607  3610      1
  3611  3608  3611      1
  3612  3608  3612      1
  3613  3608  3613      1
  3614  3613  3614      1
  3615  3613  3615      1
  3616  3613  3616      1
  3617  3614  3617      1
  3618  3614  3618      1
  3619  3614  3619      1
  3620  3619  3620      1
  3621  3619  3621      1
  3622  3619  3622      1
  3623  3620  3623      1
  3624  3620  3624      1
  3625  3620  3625      1
  3626  3625  3626      1
  3627  3625  3627      1
  3628  3625  3628      1
  3629  3626  3629      1
  3630  3626  3630      1
  3631  3626  3631      1
  3632  3631  3632      1
  3633  3631  3633      1
  3634  3631  3634      1
  3635  3632  3635      1
  3636  3632  3636      1
  3637  3632  3637      1
  3638  3637  3638      1
  3639  3637  3639      1
  3640  3637  3640      1
  3641  3638  3641      1
  3642  3638  3642      1
  3643  3638  3643      1
  3644  3643  3644      1
  3645  3643  3645      1
  3646  3643  3646      1
  3647  3644  3647      1
  3648  3644  3648      1
  3649  3644  3649      1
  3650  3649  3650      1
  3651  3649  3651      1
  3652  3649  3652      1
  3653  3650  3653      1
  3654  3650  3654      1
  3655  3650  3655      1
  3656  3655  3656      1
  3657  3655  3657      1
  3658  3655  3658      1
  3659  3656  3659      1
  3660  3656  3660      1
  3661  3656  3661      1
  3662  3661  3662      1
  3663  3661  3663      1
  3664  3661  3664      1
  3665  3662  3665      1
  3666  3662  3666      1
  3667  3662  3667      1
  3668  3667  3668      1
  3669  3667  3669      1
  3670  3667  3670      1
  3671  3668  3671      1
  3672  3668  3672      1
  3673  3668  3673      1
  3674  3673  3674      1
  3675  3673  3675      1
  3676  3673  3676      1
  3677  3674  3677      1
  3678  3674  3678      1
  3679  3674  3679      1
  3680  3679  3680      1
  3681  3679  3681      1
  3682  3679  3682      1
  3683  3680  3683      1
  3684  3680  3684      1
  3685  3680  3685      1
  3686  3685  3686      1
  3687  3685  3687      1
  3688  3685  3688      1
  3689  3686  3689      1
  3690  3686  3690      1
  3691  3686  3691      1
  3692  3691  3692      1
  3693  3691  3693      1
  3694  3691  3694      1
  3695  3692  3695      1
  3696  3692  3696      1
  3697  3692  3697      1
  3698  3697  3698      1
  3699  3697  3699      1
  3700  3697  3700      1
  3701  3698  3701      1
  3702  3698  3702      1
  3703  3698  3703      1
  3704  3703  3704      1
  3705  3703  3705      1
  3706  3703  3706      1
  3707  3704  3707      1
  3708  3704  3708      1
  3709  3704  3709      1
  3710  3709  3710      1
  3711  3709  3711      1
  3712  3709  3712      1
  3713  3710  3713      1
  3714  3710  3714      1
  3715  3710  3715      1
  3716  3715  3716      1
  3717  3715  3717      1
  3718  3715  3718      1
  3719  3716  3719      1
  3720  3716  3720      1
  3721  3716  3721      1
  3722  3721  3722      1
  3723  3721  3723      1
  3724  3721  3724      1
  3725  3722  3725      1
  3726  3722  3726      1
  3727  3722  3727      1
  3728  3727  3728      1
  3729  3727  3729      1
  3730  3727  3730      1
  3731  3728  3731      1
  3732  3728  3732      1
  3733  3728  3733      1
  3734  3733  3734      1
  3735  3733  3735      1
  3736  3733  3736      1
  3737  3734  3737      1
  3738  3734  3738      1
  3739  3734  3739      1
  3740  3739  3740      1
  3741  3739  3741      1
  3742  3739  3742      1
  3743  3740  3743      1
  3744  3740  3744      1
  3745  3740  3745      1
  3746  3745  3746      1
  3747  3745  3747      1
  3748  3745  3748      1
  3749  3746  3749      1
  3750  3746  3750      1
  3751  3746  3751      1
  3752  3751  3752      1
  3753  3751  3753      1
  3754  3751  3754      1
  3755  3752  3755      1
  3756  3752  3756      1
  3757  3752  3757      1
  3758  3757  3758      1
  3759  3757  3759      1
  3760  3757  3760      1
  3761  3758  3761      1
  3762  3758  3762      1
  3763  3758  3763      1
  3764  3763  3764      1
  3765  3763  3765      1
  3766  3763  3766      1
  3767  3764  3767      1
  3768  3764  3768      1
  3769  3764  3769      1
  3770  3769  3770      1
  3771  3769  3771      1
  3772  3769  3772      1
  3773  3770  3773      1
  3774  3770  3774      1
  3775  3770  3775      1
  3776  3775  3776      1
  3777  3775  3777      1
  3778  3775  3778      1
  3779  3776  3779      1
  3780  3776  3780      1
  3781  3776  3781      1
  3782  3781  3782      1
  3783  3781  3783      1
  3784  3781  3784      1
  3785  3782  3785      1
  3786  3782  3786      1
  3787  3782  3787      1
  3788  3787  3788      1
  3789  3787  3789      1
  3790  3787  3790      1
  3791  3788  3791      1
  3792  3788  3792      1
  3793  3788  3793      1
  3794  3793  3794      1
  3795  3793  3795      1
  3796  3793  3796      1
  3797  3794  3797      1
  3798  3794  3798      1
  3799  3794  3799      1
  3800  3799  3800      1
  3801  3799  3801      1
  3802  3799  3802      1
  3803  3800  3803      1
  3804  3800  3804      1
  3805  3800  3805      1
  3806  3805  3806      1
  3807  3805  3807      1
  3808  3805  3808      1
  3809  3806  3809      1
  3810  3806  3810      1
  3811  3806  3811      1
  3812  3811  3812      1
  3813  3811  3813      1
  3814  3811  3814      1
  3815  3812  3815      1
  3816  3812  3816      1
  3817  3812  3817      1
  3818  3817  3818      1
  3819  3817  3819      1
  3820  3817  3820      1
  3821  3818  3821      1
  3822  3818  3822      1
  3823  3818  3823      1
  3824  3823  3824      1
  3825  3823  3825      1
  3826  3823  3826      1
  3827  3824  3827      1
  3828  3824  3828      1
  3829  3824  3829      1
  3830  3829  3830      1
  3831  3829  3831      1
  3832  3829  3832      1
  3833  3830  3833      1
  3834  3830  3834      1
  3835  3830  3835      1
  3836  3835  3836      1
  3837  3835  3837      1
  3838  3835  3838      1
  3839  3836  3839      1
  3840  3836  3840      1
  3841  3836  3841      1
  3842  3841  3842      1
  3843  3841  3843      1
  3844  3841  3844      1
  3845  3842  3845      1
  3846  3842  3846      1
  3847  3842  3847      1
  3848  3847  3848      1
  3849  3847  3849      1
  3850  3847  3850      1
  3851  3848  3851      1
  3852  3848  3852      1
  3853  3848  3853      1
  3854  3853  3854      1
  3855  3853  3855      1
  3856  3853  3856      1
  3857  3854  3857      1
  3858  3854  3858      1
  3859  3854  3859      1
  3860  3859  3860      1
  3861  3859  3861      1
  3862  3859  3862      1
  3863  3860  3863      1
  3864  3860  3864      1
  3865  3860  3865      1
  3866  3865  3866      1
  3867  3865  3867      1
  3868  3865  3868      1
  3869  3866  3869      1
  3870  3866  3870      1
  3871  3866  3871      1
  3872  3871  3872      1
  3873  3871  3873      1
  3874  3871  3874      1
  3875  3872  3875      1
  3876  3872  3876      1
  3877  3872  3877      1
  3878  3877  3878      1
  3879  3877  3879      1
  3880  3877  3880      1
  3881  3878  3881      1
  3882  3878  3882      1
  3883  3878  3883      1
  3884  3883  3884      1
  3885  3883  3885      1
  3886  3883  3886      1
  3887  3884  3887      1
  3888  3884  3888      1
  3889  3884  3889      1
  3890  3889  3890      1
  3891  3889  3891      1
  3892  3889  3892      1
  3893  3890  3893      1
  3894  3890  3894      1
  3895  3890  3895      1
  3896  3895  3896      1
  3897  3895  3897      1
  3898  3895  3898      1
  3899  3896  3899      1
  3900  3896  3900      1
  3901  3896  3901      1
  3902  3901  3902      1
  3903  3901  3903      1
  3904  3901  3904      1
  3905  3902  3905      1
  3906  3902  3906      1
  3907  3902  3907      1
  3908  3907  3908      1
  3909  3907  3909      1
  3910  3907  3910      1
  3911  3908  3911      1
  3912  3908  3912      1
  3913  3908  3913      1
  3914  3913  3914      1
  3915  3913  3915      1
  3916  3913  3916      1
  3917  3914  3917      1
  3918  3914  3918      1
  3919  3914  3919      1
  3920  3919  3920      1
  3921  3919  3921      1
  3922  3919  3922      1
  3923  3920  3923      1
  3924  3920  3924      1
  3925  3920  3925      1
  3926  3925  3926      1
  3927  3925  3927      1
  3928  3925  3928      1
  3929  3926  3929      1
  3930  3926  3930      1
  3931  3926  3931      1
  3932  3931  3932      1
  3933  3931  3933      1
  3934  3931  3934      1
  3935  3932  3935      1
  3936  3932  3936      1
  3937  3932  3937      1
  3938  3937  3938      1
  3939  3937  3939      1
  3940  3937  3940      1
  3941  3938  3941      1
  3942  3938  3942      1
  3943  3938  3943      1
  3944  3943  3944      1
  3945  3943  3945      1
  3946  3943  3946      1
  3947  3944  3947      1
  3948  3944  3948      1
  3949  3944  3949      1
  3950  3949  3950      1
  3951  3949  3951      1
  3952  3949  3952      1
  3953  3950  3953      1
  3954  3950  3954      1
  3955  3950  3955      1
  3956  3955  3956      1
  3957  3955  3957      1
  3958  3955  3958      1
  3959  3956  3959      1
  3960  3956  3960      1
  3961  3956  3961      1
  3962  3961  3962      1
  3963  3961  3963      1
  3964  3961  3964      1
  3965  3962  3965      1
  3966  3962  3966      1
  3967  3962  3967      1
  3968  3967  3968      1
  3969  3967  3969      1
  3970  3967  3970      1
  3971  3968  3971      1
  3972  3968  3972      1
  3973  3968  3973      1
  3974  3973  3974      1
  3975  3973  3975      1
  3976  3973  3976      1
  3977  3974  3977      1
  3978  3974  3978      1
  3979  3974  3979      1
  3980  3979  3980      1
  3981  3979  3981      1
  3982  3979  3982      1
  3983  3980  3983      1
  3984  3980  3984      1
  3985  3980  3985      1
  3986  3985  3986      1
  3987  3985  3987      1
  3988  3985  3988      1
  3989  3986  3989      1
  3990  3986  3990      1
  3991  3986  3991      1
  3992  3991  3992      1
  3993  3991  3993      1
  3994  3991  3994      1
  3995  3992  3995      1
  3996  3992  3996      1
  3997  3992  3997      1
  3998  3997  3998      1
  3999  3997  3999      1
  4000  3997  4000      1
  4001  3998  4001      1
  4002  3998  4002      1
  4003  3998  4003      1
  4004  4003  4004      1
  4005  4003  4005      1
  4006  4003  4006      1
  4007  4004  4007      1
  4008  4004  4008      1
  4009  4004  4009      1
  4010  4009  4010      1
  4011  4009  4011      1
  4012  4009  4012      1
  4013  4010  4013      1
  4014  4010  4014      1
  4015  4010  4015      1
  4016  4015  4016      1
  4017  4015  4017      1
  4018  4015  4018      1
  4019  4016  4019      1
  4020  4016  4020      1
  4021  4016  4021      1
  4022  4021  4022      1
  4023  4021  4023      1
  4024  4021  4024      1
  4025  4022  4025      1
  4026  4022  4026      1
  4027  4022  4027      1
  4028  4027  4028      1
  4029  4027  4029      1
  4030  4027  4030      1
  4031  4028  4031      1
  4032  4028  4032      1
  4033  4028  4033      1
  4034  4033  4034      1
  4035  4033  4035      1
  4036  4033  4036      1
  4037  4034  4037      1
  4038  4034  4038      1
  4039  4034  4039      1
  4040  4039  4040      1
  4041  4039  4041      1
  4042  4039  4042      1
  4043  4040  4043      1
  4044  4040  4044      1
  4045  4040  4045      1
  4046  4045  4046      1
  4047  4045  4047      1
  4048  4045  4048      1
  4049  4046  4049      1
  4050  4046  4050      1
  4051  4046  4051      1
  4052  4051  4052      1
  4053  4051  4053      1
  4054  4051  4054      1
  4055  4052  4055      1
  4056  4052  4056      1
  4057  4052  4057      1
  4058  4057  4058      1
  4059  4057  4059      1
  4060  4057  4060      1
  4061  4058  4061      1
  4062  4058  4062      1
  4063  4058  4063      1
  4064  4063  4064      1
  4065  4063  4065      1
  4066  4063  4066      1
  4067  4064  4067      1
  4068  4064  4068      1
  4069  4064  4069      1
  4070  4069  4070      1
  4071  4069  4071      1
  4072  4069  4072      1
  4073  4070  4073      1
  4074  4070  4074      1
  4075  4070  4075      1
  4076  4075  4076      1
  4077  4075  4077      1
  4078  4075  4078      1
  4079  4076  4079      1
  4080  4076  4080      1
  4081  4076  4081      1
  4082  4081  4082      1
  4083  4081  4083      1
  4084  4081  4084      1
  4085  4082  4085      1
  4086  4082  4086      1
  4087  4082  4087      1
  4088  4087  4088      1
  4089  4087  4089      1
  4090  4087  4090      1
  4091  4088  4091      1
  4092  4088  4092      1
  4093  4088  4093      1
  4094  4093  4094      1
  4095  4093  4095      1
  4096  4093  4096      1
  4097  4094  4097      1
  4098  4094  4098      1
  4099  4094  4099      1
  4100  4099  4100      1
  4101  4099  4101      1
  4102  4099  4102      1
  4103  4100  4103      1
  4104  4100  4104      1
  4105  4100  4105      1
  4106  4105  4106      1
  4107  4105  4107      1
  4108  4105  4108      1
  4109  4106  4109      1
  4110  4106  4110      1
  4111  4106  4111      1
  4112  4111  4112      1
  4113  4111  4113      1
  4114  4111  4114      1
  4115  4112  4115      1
  4116  4112  4116      1
  4117  4112  4117      1
  4118  4117  4118      1
  4119  4117  4119      1
  4120  4117  4120      1
  4121  4118  4121      1
  4122  4118  4122      1
  4123  4118  4123      1
  4124  4123  4124      1
  4125  4123  4125      1
  4126  4123  4126      1
  4127  4124  4127      1
  4128  4124  4128      1
  4129  4124  4129      1
  4130  4129  4130      1
  4131  4129  4131      1
  4132  4129  4132      1
  4133  4130  4133      1
  4134  4130  4134      1
  4135  4130  4135      1
  4136  4135  4136      1
  4137  4135  4137      1
  4138  4135  4138      1
  4139  4136  4139      1
  4140  4136  4140      1
  4141  4136  4141      1
  4142  4141  4142      1
  4143  4141  4143      1
  4144  4141  4144      1
  4145  4142  4145      1
  4146  4142  4146      1
  4147  4142  4147      1
  4148  4147  4148      1
  4149  4147  4149      1
  4150  4147  4150      1
  4151  4148  4151      1
  4152  4148  4152      1
  4153  4148  4153      1
  4154  4153  4154      1
  4155  4153  4155      1
  4156  4153  4156      1
  4157  4154  4157      1
  4158  4154  4158      1
  4159  4154  4159      1
  4160  4159  4160      1
  4161  4159  4161      1
  4162  4159  4162      1
  4163  4160  4163      1
  4164  4160  4164      1
  4165  4160  4165      1
  4166  4165  4166      1
  4167  4165  4167      1
  4168  4165  4168      1
  4169  4166  4169      1
  4170  4166  4170      1
  4171  4166  4171      1
  4172  4171  4172      1
  4173  4171  4173      1
  4174  4171  4174      1
  4175  4172  4175      1
  4176  4172  4176      1
  4177  4172  4177      1
  4178  4177  4178      1
  4179  4177  4179      1
  4180  4177  4180      1
  4181  4178  4181      1
  4182  4178  4182      1
  4183  4178  4183      1
  4184  4183  4184      1
  4185  4183  4185      1
  4186  4183  4186      1
  4187  4184  4187      1
  4188  4184  4188      1
  4189  4184  4189      1
  4190  4189  4190      1
  4191  4189  4191      1
  4192  4189  4192      1
  4193  4190  4193      1
  4194  4190  4194      1
  4195  4190  4195      1
  4196  4195  4196      1
  4197  4195  4197      1
  4198  4195  4198      1
  4199  4196  4199      1
  4200  4196  4200      1
  4201  4196  4201      1
  4202  4201  4202      1
  4203  4201  4203      1
  4204  4201  4204      1
  4205  4202  4205      1
  4206  4202  4206      1
  4207  4202  4207      1
  4208  4207  4208      1
  4209  4207  4209      1
  4210  4207  4210      1
  4211  4208  4211      1
  4212  4208  4212      1
  4213  4208  4213      1
  4214  4213  4214      1
  4215  4213  4215      1
  4216  4213  4216      1
  4217  4214  4217      1
  4218  4214  4218      1
  4219  4214  4219      1
  4220  4219  4220      1
  4221  4219  4221      1
  4222  4219  4222      1
  4223  4220  4223      1
  4224  4220  4224      1
  4225  4220  4225      1
  4226  4225  4226      1
  4227  4225  4227      1
  4228  4225  4228      1
  4229  4226  4229      1
  4230  4226  4230      1
  4231  4226  4231      1
  4232  4231  4232      1
  4233  4231  4233      1
  4234  4231  4234      1
  4235  4232  4235      1
  4236  4232  4236      1
  4237  4232  4237      1
  4238  4237  4238      1
  4239  4237  4239      1
  4240  4237  4240      1
  4241  4238  4241      1
  4242  4238  4242      1
  4243  4238  4243      1
  4244  4243  4244      1
  4245  4243  4245      1
  4246  4243  4246      1
  4247  4244  4247      1
  4248  4244  4248      1
  4249  4244  4249      1
  4250  4249  4250      1
  4251  4249  4251      1
  4252  4249  4252      1
  4253  4250  4253      1
  4254  4250  4254      1
  4255  4250  4255      1
  4256  4255  4256      1
  4257  4255  4257      1
  4258  4255  4258      1
  4259  4256  4259      1
  4260  4256  4260      1
  4261  4256  4261      1
  4262  4261  4262      1
  4263  4261  4263      1
  4264  4261  4264      1
  4265  4262  4265      1
  4266  4262  4266      1
  4267  4262  4267      1
  4268  4267  4268      1
  4269  4267  4269      1
  4270  4267  4270      1
  4271  4268  4271      1
  4272  4268  4272      1
  4273  4268  4273      1
  4274  4273  4274      1
  4275  4273  4275      1
  4276  4273  4276      1
  4277  4274  4277      1
  4278  4274  4278      1
  4279  4274  4279      1
  4280  4279  4280      1
  4281  4279  4281      1
  4282  4279  4282      1
  4283  4280  4283      1
  4284  4280  4284      1
  4285  4280  4285      1
  4286  4285  4286      1
  4287  4285  4287      1
  4288  4285  4288      1
  4289  4286  4289      1
  4290  4286  4290      1
  4291  4286  4291      1
  4292  4291  4292      1
  4293  4291  4293      1
  4294  4291  4294      1
  4295  4292  4295      1
  4296  4292  4296      1
  4297  4292  4297      1
  4298  4297  4298      1
  4299  4297  4299      1
  4300  4297  4300      1
  4301  4298  4301      1
  4302  4298  4302      1
  4303  4298  4303      1
  4304  4303  4304      1
  4305  4303  4305      1
  4306  4303  4306      1
  4307  4304  4307      1
  4308  4304  4308      1
  4309  4304  4309      1
  4310  4309  4310      1
  4311  4309  4311      1
  4312  4309  4312      1
  4313  4310  4313      1
  4314  4310  4314      1
  4315  4310  4315      1
  4316  4315  4316      1
  4317  4315  4317      1
  4318  4315  4318      1
  4319  4316  4319      1
  4320  4316  4320      1
  4321  4316  4321      1
  4322  4321  4322      1
  4323  4321  4323      1
  4324  4321  4324      1
  4325  4322  4325      1
  4326  4322  4326      1
  4327  4322  4327      1
  4328  4327  4328      1
  4329  4327  4329      1
  4330  4327  4330      1
  4331  4328  4331      1
  4332  4328  4332      1
  4333  4328  4333      1
  4334  4333  4334      1
  4335  4333  4335      1
  4336  4333  4336      1
  4337  4334  4337      1
  4338  4334  4338      1
  4339  4334  4339      1
  4340  4339  4340      1
  4341  4339  4341      1
  4342  4339  4342      1
  4343  4340  4343      1
  4344  4340  4344      1
  4345  4340  4345      1
  4346  4345  4346      1
  4347  4345  4347      1
  4348  4345  4348      1
  4349  4346  4349      1
  4350  4346  4350      1
  4351  4346  4351      1
  4352  4351  4352      1
  4353  4351  4353      1
  4354  4351  4354      1
  4355  4352  4355      1
  4356  4352  4356      1
  4357  4352  4357      1
  4358  4357  4358      1
  4359  4357  4359      1
  4360  4357  4360      1
  4361  4358  4361      1
  4362  4358  4362      1
  4363  4358  4363      1
  4364  4363  4364      1
  4365  4363  4365      1
  4366  4363  4366      1
  4367  4364  4367      1
  4368  4364  4368      1
  4369  4364  4369      1
  4370  4369  4370      1
  4371  4369  4371      1
  4372  4369  4372      1
  4373  4370  4373      1
  4374  4370  4374      1
  4375  4370  4375      1
  4376  4375  4376      1
  4377  4375  4377      1
  4378  4375  4378      1
  4379  4376  4379      1
  4380  4376  4380      1
  4381  4376  4381      1
  4382  4381  4382      1
  4383  4381  4383      1
  4384  4381  4384      1
  4385  4382  4385      1
  4386  4382  4386      1
  4387  4382  4387      1
  4388  4387  4388      1
  4389  4387  4389      1
  4390  4387  4390      1
  4391  4388  4391      1
  4392  4388  4392      1
  4393  4388  4393      1
  4394  4393  4394      1
  4395  4393  4395      1
  4396  4393  4396      1
  4397  4394  4397      1
  4398  4394  4398      1
  4399  4394  4399      1
  4400  4399  4400      1
  4401  4399  4401      1
  4402  4399  4402      1
  4403  4400  4403      1
  4404  4400  4404      1
  4405  4400  4405      1
  4406  4405  4406      1
  4407  4405  4407      1
  4408  4405  4408      1
  4409  4406  4409      1
  4410  4406  4410      1
  4411  4406  4411      1
  4412  4411  4412      1
  4413  4411  4413      1
  4414  4411  4414      1
  4415  4412  4415      1
  4416  4412  4416      1
  4417  4412  4417      1
  4418  4417  4418      1
  4419  4417  4419      1
  4420  4417  4420      1
  4421  4418  4421      1
  4422  4418  4422      1
  4423  4418  4423      1
  4424  4423  4424      1
  4425  4423  4425      1
  4426  4423  4426      1
  4427  4424  4427      1
  4428  4424  4428      1
  4429  4424  4429      1
  4430  4429  4430      1
  4431  4429  4431      1
  4432  4429  4432      1
  4433  4430  4433      1
  4434  4430  4434      1
  4435  4430  4435      1
  4436  4435  4436      1
  4437  4435  4437      1
  4438  4435  4438      1
  4439  4436  4439      1
  4440  4436  4440      1
  4441  4436  4441      1
  4442  4441  4442      1
  4443  4441  4443      1
  4444  4441  4444      1
  4445  4442  4445      1
  4446  4442  4446      1
  4447  4442  4447      1
  4448  4447  4448      1
  4449  4447  4449      1
  4450  4447  4450      1
  4451  4448  4451      1
  4452  4448  4452      1
  4453  4448  4453      1
  4454  4453  4454      1
  4455  4453  4455      1
  4456  4453  4456      1
  4457  4454  4457      1
  4458  4454  4458      1
  4459  4454  4459      1
  4460  4459  4460      1
  4461  4459  4461      1
  4462  4459  4462      1
  4463  4460  4463      1
  4464  4460  4464      1
  4465  4460  4465      1
  4466  4465  4466      1
  4467  4465  4467      1
  4468  4465  4468      1
  4469  4466  4469      1
  4470  4466  4470      1
  4471  4466  4471      1
  4472  4471  4472      1
  4473  4471  4473      1
  4474  4471  4474      1
  4475  4472  4475      1
  4476  4472  4476      1
  4477  4472  4477      1
  4478  4477  4478      1
  4479  4477  4479      1
  4480  4477  4480      1
  4481  4478  4481      1
  4482  4478  4482      1
  4483  4478  4483      1
  4484  4483  4484      1
  4485  4483  4485      1
  4486  4483  4486      1
  4487  4484  4487      1
  4488  4484  4488      1
  4489  4484  4489      1
  4490  4489  4490      1
  4491  4489  4491      1
  4492  4489  4492      1
  4493  4490  4493      1
  4494  4490  4494      1
  4495  4490  4495      1
  4496  4495  4496      1
  4497  4495  4497      1
  4498  4495  4498      1
  4499  4496  4499      1
  4500  4496  4500      1
  4501  4496  4501      1
  4502  4501  4502      1
  4503  4501  4503      1
  4504  4501  4504      1
  4505  4502  4505      1
  4506  4502  4506      1
  4507  4502  4507      1
  4508  4507  4508      1
  4509  4507  4509      1
  4510  4507  4510      1
  4511  4508  4511      1
  4512  4508  4512      1
  4513  4508  4513      1
  4514  4513  4514      1
  4515  4513  4515      1
  4516  4513  4516      1
  4517  4514  4517      1
  4518  4514  4518      1
  4519  4514  4519      1
  4520  4519  4520      1
  4521  4519  4521      1
  4522  4519  4522      1
  4523  4520  4523      1
  4524  4520  4524      1
  4525  4520  4525      1
  4526  4525  4526      1
  4527  4525  4527      1
  4528  4525  4528      1
  4529  4526  4529      1
  4530  4526  4530      1
  4531  4526  4531      1
  4532  4531  4532      1
  4533  4531  4533      1
  4534  4531  4534      1
  4535  4532  4535      1
  4536  4532  4536      1
  4537  4532  4537      1
  4538  4537  4538      1
  4539  4537  4539      1
  4540  4537  4540      1
  4541  4538  4541      1
  4542  4538  4542      1
  4543  4538  4543      1
  4544  4543  4544      1
  4545  4543  4545      1
  4546  4543  4546      1
  4547  4544  4547      1
  4548  4544  4548      1
  4549  4544  4549      1
  4550  4549  4550      1
  4551  4549  4551      1
  4552  4549  4552      1
  4553  4550  4553      1
  4554  4550  4554      1
  4555  4550  4555      1
  4556  4555  4556      1
  4557  4555  4557      1
  4558  4555  4558      1
  4559  4556  4559      1
  4560  4556  4560      1
  4561  4556  4561      1
  4562  4561  4562      1
  4563  4561  4563      1
  4564  4561  4564      1
  4565  4562  4565      1
  4566  4562  4566      1
  4567  4562  4567      1
  4568  4567  4568      1
  4569  4567  4569      1
  4570  4567  4570      1
  4571  4568  4571      1
  4572  4568  4572      1
  4573  4568  4573      1
  4574  4573  4574      1
  4575  4573  4575      1
  4576  4573  4576      1
  4577  4574  4577      1
  4578  4574  4578      1
  4579  4574  4579      1
  4580  4579  4580      1
  4581  4579  4581      1
  4582  4579  4582      1
  4583  4580  4583      1
  4584  4580  4584      1
  4585  4580  4585      1
  4586  4585  4586      1
  4587  4585  4587      1
  4588  4585  4588      1
  4589  4586  4589      1
  4590  4586  4590      1
  4591  4586  4591      1
  4592  4591  4592      1
  4593  4591  4593      1
  4594  4591  4594      1
  4595  4592  4595      1
  4596  4592  4596      1
  4597  4592  4597      1
  4598  4597  4598      1
  4599  4597  4599      1
  4600  4597  4600      1
  4601  4598  4601      1
  4602  4598  4602      1
  4603  4598  4603      1
  4604  4603  4604      1
  4605  4603  4605      1
  4606  4603  4606      1
  4607  4604  4607      1
  4608  4604  4608      1
  4609  4604  4609      1
  4610  4609  4610      1
  4611  4609  4611      1
  4612  4609  4612      1
  4613  4610  4613      1
  4614  4610  4614      1
  4615  4610  4615      1
  4616  4615  4616      1
  4617  4615  4617      1
  4618  4615  4618      1
  4619  4616  4619      1
  4620  4616  4620      1
  4621  4616  4621      1
  4622  4621  4622      1
  4623  4621  4623      1
  4624  4621  4624      1
  4625  4622  4625      1
  4626  4622  4626      1
  4627  4622  4627      1
  4628  4627  4628      1
  4629  4627  4629      1
  4630  4627  4630      1
  4631  4628  4631      1
  4632  4628  4632      1
  4633  4628  4633      1
  4634  4633  4634      1
  4635  4633  4635      1
  4636  4633  4636      1
  4637  4634  4637      1
  4638  4634  4638      1
  4639  4634  4639      1
  4640  4639  4640      1
  4641  4639  4641      1
  4642  4639  4642      1
  4643  4640  4643      1
  4644  4640  4644      1
  4645  4640  4645      1
  4646  4645  4646      1
  4647  4645  4647      1
  4648  4645  4648      1
  4649  4646  4649      1
  4650  4646  4650      1
  4651  4646  4651      1
  4652  4651  4652      1
  4653  4651  4653      1
  4654  4651  4654      1
  4655  4652  4655      1
  4656  4652  4656      1
  4657  4652  4657      1
  4658  4657  4658      1
  4659  4657  4659      1
  4660  4657  4660      1
  4661  4658  4661      1
  4662  4658  4662      1
  4663  4658  4663      1
  4664  4663  4664      1
  4665  4663  4665      1
  4666  4663  4666      1
  4667  4664  4667      1
  4668  4664  4668      1
  4669  4664  4669      1
  4670  4669  4670      1
  4671  4669  4671      1
  4672  4669  4672      1
  4673  4670  4673      1
  4674  4670  4674      1
  4675  4670  4675      1
  4676  4675  4676      1
  4677  4675  4677      1
  4678  4675  4678      1
  4679  4676  4679      1
  4680  4676  4680      1
  4681  4676  4681      1
  4682  4681  4682      1
  4683  4681  4683      1
  4684  4681  4684      1
  4685  4682  4685      1
  4686  4682  4686      1
  4687  4682  4687      1
  4688  4687  4688      1
  4689  4687  4689      1
  4690  4687  4690      1
  4691  4688  4691      1
  4692  4688  4692      1
  4693  4688  4693      1
  4694  4693  4694      1
  4695  4693  4695      1
  4696  4693  4696      1
  4697  4694  4697      1
  4698  4694  4698      1
  4699  4694  4699      1
  4700  4699  4700      1
  4701  4699  4701      1
  4702  4699  4702      1
  4703  4700  4703      1
  4704  4700  4704      1
  4705  4700  4705      1
  4706  4705  4706      1
  4707  4705  4707      1
  4708  4705  4708      1
  4709  4706  4709      1
  4710  4706  4710      1
  4711  4706  4711      1
  4712  4711  4712      1
  4713  4711  4713      1
  4714  4711  4714      1
  4715  4712  4715      1
  4716  4712  4716      1
  4717  4712  4717      1
  4718  4717  4718      1
  4719  4717  4719      1
  4720  4717  4720      1
  4721  4718  4721      1
  4722  4718  4722      1
  4723  4718  4723      1
  4724  4723  4724      1
  4725  4723  4725      1
  4726  4723  4726      1
  4727  4724  4727      1
  4728  4724  4728      1
  4729  4724  4729      1
  4730  4729  4730      1
  4731  4729  4731      1
  4732  4729  4732      1
  4733  4730  4733      1
  4734  4730  4734      1
  4735  4730  4735      1
  4736  4735  4736      1
  4737  4735  4737      1
  4738  4735  4738      1
  4739  4736  4739      1
  4740  4736  4740      1
  4741  4736  4741      1
  4742  4741  4742      1
  4743  4741  4743      1
  4744  4741  4744      1
  4745  4742  4745      1
  4746  4742  4746      1
  4747  4742  4747      1
  4748  4747  4748      1
  4749  4747  4749      1
  4750  4747  4750      1
  4751  4748  4751      1
  4752  4748  4752      1
  4753  4748  4753      1
  4754  4753  4754      1
  4755  4753  4755      1
  4756  4753  4756      1
  4757  4754  4757      1
  4758  4754  4758      1
  4759  4754  4759      1
  4760  4759  4760      1
  4761  4759  4761      1
  4762  4759  4762      1
  4763  4760  4763      1
  4764  4760  4764      1
  4765  4760  4765      1
  4766  4765  4766      1
  4767  4765  4767      1
  4768  4765  4768      1
  4769  4766  4769      1
  4770  4766  4770      1
  4771  4766  4771      1
  4772  4771  4772      1
  4773  4771  4773      1
  4774  4771  4774      1
  4775  4772  4775      1
  4776  4772  4776      1
  4777  4772  4777      1
  4778  4777  4778      1
  4779  4777  4779      1
  4780  4777  4780      1
  4781  4778  4781      1
  4782  4778  4782      1
  4783  4778  4783      1
  4784  4783  4784      1
  4785  4783  4785      1
  4786  4783  4786      1
  4787  4784  4787      1
  4788  4784  4788      1
  4789  4784  4789      1
  4790  4789  4790      1
  4791  4789  4791      1
  4792  4789  4792      1
  4793  4790  4793      1
  4794  4790  4794      1
  4795  4790  4795      1
  4796  4795  4796      1
  4797  4795  4797      1
  4798  4795  4798      1
  4799  4796  4799      1
  4800  4796  4800      1
  4801  4796  4801      1
  4802  4801  4802      1
  4803  4801  4803      1
  4804  4801  4804      1
  4805  4802  4805      1
  4806  4802  4806      1
  4807  4802  4807      1
  4808  4807  4808      1
  4809  4807  4809      1
  4810  4807  4810      1
  4811  4808  4811      1
  4812  4808  4812      1
  4813  4808  4813      1
  4814  4813  4814      1
  4815  4813  4815      1
  4816  4813  4816      1
  4817  4814  4817      1
  4818  4814  4818      1
  4819  4814  4819      1
  4820  4819  4820      1
  4821  4819  4821      1
  4822  4819  4822      1
  4823  4820  4823      1
  4824  4820  4824      1
  4825  4820  4825      1
  4826  4825  4826      1
  4827  4825  4827      1
  4828  4825  4828      1
  4829  4826  4829      1
  4830  4826  4830      1
  4831  4826  4831      1
  4832  4831  4832      1
  4833  4831  4833      1
  4834  4831  4834      1
  4835  4832  4835      1
  4836  4832  4836      1
  4837  4832  4837      1
  4838  4837  4838      1
  4839  4837  4839      1
  4840  4837  4840      1
  4841  4838  4841      1
  4842  4838  4842      1
  4843  4838  4843      1
  4844  4843  4844      1
  4845  4843  4845      1
  4846  4843  4846      1
  4847  4844  4847      1
  4848  4844  4848      1
  4849  4844  4849      1
  4850  4849  4850      1
  4851  4849  4851      1
  4852  4849  4852      1
  4853  4850  4853      1
  4854  4850  4854      1
  4855  4850  4855      1
  4856  4855  4856      1
  4857  4855  4857      1
  4858  4855  4858      1
  4859  4856  4859      1
  4860  4856  4860      1
  4861  4856  4861      1
  4862  4861  4862      1
  4863  4861  4863      1
  4864  4861  4864      1
  4865  4862  4865      1
  4866  4862  4866      1
  4867  4862  4867      1
  4868  4867  4868      1
  4869  4867  4869      1
  4870  4867  4870      1
  4871  4868  4871      1
  4872  4868  4872      1
  4873  4868  4873      1
  4874  4873  4874      1
  4875  4873  4875      1
  4876  4873  4876      1
  4877  4874  4877      1
  4878  4874  4878      1
  4879  4874  4879      1
  4880  4879  4880      1
  4881  4879  4881      1
  4882  4879  4882      1
  4883  4880  4883      1
  4884  4880  4884      1
  4885  4880  4885      1
  4886  4885  4886      1
  4887  4885  4887      1
  4888  4885  4888      1
  4889  4886  4889      1
  4890  4886  4890      1
  4891  4886  4891      1
  4892  4891  4892      1
  4893  4891  4893      1
  4894  4891  4894      1
  4895  4892  4895      1
  4896  4892  4896      1
  4897  4892  4897      1
  4898  4897  4898      1
  4899  4897  4899      1
  4900  4897  4900      1
  4901  4898  4901      1
  4902  4898  4902      1
  4903  4898  4903      1
  4904  4903  4904      1
  4905  4903  4905      1
  4906  4903  4906      1
  4907  4904  4907      1
  4908  4904  4908      1
  4909  4904  4909      1
  4910  4909  4910      1
  4911  4909  4911      1
  4912  4909  4912      1
  4913  4910  4913      1
  4914  4910  4914      1
  4915  4910  4915      1
  4916  4915  4916      1
  4917  4915  4917      1
  4918  4915  4918      1
  4919  4916  4919      1
  4920  4916  4920      1
  4921  4916  4921      1
  4922  4921  4922      1
  4923  4921  4923      1
  4924  4921  4924      1
  4925  4922  4925      1
  4926  4922  4926      1
  4927  4922  4927      1
  4928  4927  4928      1
  4929  4927  4929      1
  4930  4927  4930      1
  4931  4928  4931      1
  4932  4928  4932      1
  4933  4928  4933      1
  4934  4933  4934      1
  4935  4933  4935      1
  4936  4933  4936      1
  4937  4934  4937      1
  4938  4934  4938      1
  4939  4934  4939      1
  4940  4939  4940      1
  4941  4939  4941      1
  4942  4939  4942      1
  4943  4940  4943      1
  4944  4940  4944      1
  4945  4940  4945      1
  4946  4945  4946      1
  4947  4945  4947      1
  4948  4945  4948      1
  4949  4946  4949      1
  4950  4946  4950      1
  4951  4946  4951      1
  4952  4951  4952      1
  4953  4951  4953      1
  4954  4951  4954      1
  4955  4952  4955      1
  4956  4952  4956      1
  4957  4952  4957      1
  4958  4957  4958      1
  4959  4957  4959      1
  4960  4957  4960      1
  4961  4958  4961      1
  4962  4958  4962      1
  4963  4958  4963      1
  4964  4963  4964      1
  4965  4963  4965      1
  4966  4963  4966      1
  4967  4964  4967      1
  4968  4964  4968      1
  4969  4964  4969      1
  4970  4969  4970      1
  4971  4969  4971      1
  4972  4969  4972      1
  4973  4970  4973      1
  4974  4970  4974      1
  4975  4970  4975      1
  4976  4975  4976      1
  4977  4975  4977      1
  4978  4975  4978      1
  4979  4976  4979      1
  4980  4976  4980      1
  4981  4976  4981      1
  4982  4981  4982      1
  4983  4981  4983      1
  4984  4981  4984      1
  4985  4982  4985      1
  4986  4982  4986      1
  4987  4982  4987      1
  4988  4987  4988      1
  4989  4987  4989      1
  4990  4987  4990      1
  4991  4988  4991      1
  4992  4988  4992      1
  4993  4988  4993      1
  4994  4993  4994      1
  4995  4993  4995      1
  4996  4993  4996      1
  4997  4994  4997      1
  4998  4994  4998      1
  4999  4994  4999      1
  5000  4999  5000      1
  5001  4999  5001      1
  5002  4999  5002      1
  5003  5000  5003      1
  5004  5000  5004      1
  5005  5000  5005      1
  5006  5005  5006      1
  5007  5005  5007      1
  5008  5005  5008      1
  5009  5006  5009      1
  5010  5006  5010      1
  5011  5006  5011      1
  5012  5011  5012      1
  5013  5011  5013      1
  5014  5011  5014      1
  5015  5012  5015      1
  5016  5012  5016      1
  5017  5012  5017      1
  5018  5017  5018      1
  5019  5017  5019      1
  5020  5017  5020      1
  5021  5018  5021      1
  5022  5018  5022      1
  5023  5018  5023      1
  5024  5023  5024      1
  5025  5023  5025      1
  5026  5023  5026      1
  5027  5024  5027      1
  5028  5024  5028      1
  5029  5024  5029      1
  5030  5029  5030      1
  5031  5029  5031      1
  5032  5029  5032      1
  5033  5030  5033      1
  5034  5030  5034      1
  5035  5030  5035      1
  5036  5035  5036      1
  5037  5035  5037      1
  5038  5035  5038      1
  5039  5036  5039      1
  5040  5036  5040      1
  5041  5036  5041      1
  5042  5041  5042      1
  5043  5041  5043      1
  5044  5041  5044      1
  5045  5042  5045      1
  5046  5042  5046      1
  5047  5042  5047      1
  5048  5047  5048      1
  5049  5047  5049      1
  5050  5047  5050      1
  5051  5048  5051      1
  5052  5048  5052      1
  5053  5048  5053      1
  5054  5053  5054      1
  5055  5053  5055      1
  5056  5053  5056      1
  5057  5054  5057      1
  5058  5054  5058      1
  5059  5054  5059      1
  5060  5059  5060      1
  5061  5059  5061      1
  5062  5059  5062      1
  5063  5060  5063      1
  5064  5060  5064      1
  5065  5060  5065      1
  5066  5065  5066      1
  5067  5065  5067      1
  5068  5065  5068      1
  5069  5066  5069      1
  5070  5066  5070      1
  5071  5066  5071      1
  5072  5071  5072      1
  5073  5071  5073      1
  5074  5071  5074      1
  5075  5072  5075      1
  5076  5072  5076      1
  5077  5072  5077      1
  5078  5077  5078      1
  5079  5077  5079      1
  5080  5077  5080      1
  5081  5078  5081      1
  5082  5078  5082      1
  5083  5078  5083      1
  5084  5083  5084      1
  5085  5083  5085      1
  5086  5083  5086      1
  5087  5084  5087      1
  5088  5084  5088      1
  5089  5084  5089      1
  5090  5089  5090      1
  5091  5089  5091      1
  5092  5089  5092      1
  5093  5090  5093      1
  5094  5090  5094      1
  5095  5090  5095      1
  5096  5095  5096      1
  5097  5095  5097      1
  5098  5095  5098      1
  5099  5096  5099      1
  5100  5096  5100      1
  5101  5096  5101      1
  5102  5101  5102      1
  5103  5101  5103      1
  5104  5101  5104      1
  5105  5102  5105      1
  5106  5102  5106      1
  5107  5102  5107      1
  5108  5107  5108      1
  5109  5107  5109      1
  5110  5107  5110      1
  5111  5108  5111      1
  5112  5108  5112      1
  5113  5108  5113      1
  5114  5113  5114      1
  5115  5113  5115      1
  5116  5113  5116      1
  5117  5114  5117      1
  5118  5114  5118      1
  5119  5114  5119      1
  5120  5119  5120      1
  5121  5119  5121      1
  5122  5119  5122      1
  5123  5120  5123      1
  5124  5120  5124      1
  5125  5120  5125      1
  5126  5125  5126      1
  5127  5125  5127      1
  5128  5125  5128      1
  5129  5126  5129      1
  5130  5126  5130      1
  5131  5126  5131      1
  5132  5131  5132      1
  5133  5131  5133      1
  5134  5131  5134      1
  5135  5132  5135      1
  5136  5132  5136      1
  5137  5132  5137      1
  5138  5137  5138      1
  5139  5137  5139      1
  5140  5137  5140      1
  5141  5138  5141      1
  5142  5138  5142      1
  5143  5138  5143      1
  5144  5143  5144      1
  5145  5143  5145      1
  5146  5143  5146      1
  5147  5144  5147      1
  5148  5144  5148      1
  5149  5144  5149      1
  5150  5149  5150      1
  5151  5149  5151      1
  5152  5149  5152      1
  5153  5150  5153      1
  5154  5150  5154      1
  5155  5150  5155      1
  5156  5155  5156      1
  5157  5155  5157      1
  5158  5155  5158      1
  5159  5156  5159      1
  5160  5156  5160      1
  5161  5156  5161      1
  5162  5161  5162      1
  5163  5161  5163      1
  5164  5161  5164      1
  5165  5162  5165      1
  5166  5162  5166      1
  5167  5162  5167      1
  5168  5167  5168      1
  5169  5167  5169      1
  5170  5167  5170      1
  5171  5168  5171      1
  5172  5168  5172      1
  5173  5168  5173      1
  5174  5173  5174      1
  5175  5173  5175      1
  5176  5173  5176      1
  5177  5174  5177      1
  5178  5174  5178      1
  5179  5174  5179      1
  5180  5179  5180      1
  5181  5179  5181      1
  5182  5179  5182      1
  5183  5180  5183      1
  5184  5180  5184      1
  5185  5180  5185      1
  5186  5185  5186      1
  5187  5185  5187      1
  5188  5185  5188      1
  5189  5186  5189      1
  5190  5186  5190      1
  5191  5186  5191      1
  5192  5191  5192      1
  5193  5191  5193      1
  5194  5191  5194      1
  5195  5192  5195      1
  5196  5192  5196      1
  5197  5192  5197      1
  5198  5197  5198      1
  5199  5197  5199      1
  5200  5197  5200      1
  5201  5198  5201      1
  5202  5198  5202      1
  5203  5198  5203      1
  5204  5203  5204      1
  5205  5203  5205      1
  5206  5203  5206      1
  5207  5204  5207      1
  5208  5204  5208      1
  5209  5204  5209      1
  5210  5209  5210      1
  5211  5209  5211      1
  5212  5209  5212      1
  5213  5210  5213      1
  5214  5210  5214      1
  5215  5210  5215      1
  5216  5215  5216      1
  5217  5215  5217      1
  5218  5215  5218      1
  5219  5216  5219      1
  5220  5216  5220      1
  5221  5216  5221      1
  5222  5221  5222      1
  5223  5221  5223      1
  5224  5221  5224      1
  5225  5222  5225      1
  5226  5222  5226      1
  5227  5222  5227      1
  5228  5227  5228      1
  5229  5227  5229      1
  5230  5227  5230      1
  5231  5228  5231      1
  5232  5228  5232      1
  5233  5228  5233      1
  5234  5233  5234      1
  5235  5233  5235      1
  5236  5233  5236      1
  5237  5234  5237      1
  5238  5234  5238      1
  5239  5234  5239      1
  5240  5239  5240      1
  5241  5239  5241      1
  5242  5239  5242      1
  5243  5240  5243      1
  5244  5240  5244      1
  5245  5240  5245      1
  5246  5245  5246      1
  5247  5245  5247      1
  5248  5245  5248      1
  5249  5246  5249      1
  5250  5246  5250      1
  5251  5246  5251      1
  5252  5251  5252      1
  5253  5251  5253      1
  5254  5251  5254      1
  5255  5252  5255      1
  5256  5252  5256      1
  5257  5252  5257      1
  5258  5257  5258      1
  5259  5257  5259      1
  5260  5257  5260      1
  5261  5258  5261      1
  5262  5258  5262      1
  5263  5258  5263      1
  5264  5263  5264      1
  5265  5263  5265      1
  5266  5263  5266      1
  5267  5264  5267      1
  5268  5264  5268      1
  5269  5264  5269      1
  5270  5269  5270      1
  5271  5269  5271      1
  5272  5269  5272      1
  5273  5270  5273      1
  5274  5270  5274      1
  5275  5270  5275      1
  5276  5275  5276      1
  5277  5275  5277      1
  5278  5275  5278      1
  5279  5276  5279      1
  5280  5276  5280      1
  5281  5276  5281      1
  5282  5281  5282      1
  5283  5281  5283      1
  5284  5281  5284      1
  5285  5282  5285      1
  5286  5282  5286      1
  5287  5282  5287      1
  5288  5287  5288      1
  5289  5287  5289      1
  5290  5287  5290      1
  5291  5288  5291      1
  5292  5288  5292      1
  5293  5288  5293      1
  5294  5293  5294      1
  5295  5293  5295      1
  5296  5293  5296      1
  5297  5294  5297      1
  5298  5294  5298      1
  5299  5294  5299      1
  5300  5299  5300      1
  5301  5299  5301      1
  5302  5299  5302      1
  5303  5300  5303      1
  5304  5300  5304      1
  5305  5300  5305      1
  5306  5305  5306      1
  5307  5305  5307      1
  5308  5305  5308      1
  5309  5306  5309      1
  5310  5306  5310      1
  5311  5306  5311      1
  5312  5311  5312      1
  5313  5311  5313      1
  5314  5311  5314      1
  5315  5312  5315      1
  5316  5312  5316      1
  5317  5312  5317      1
  5318  5317  5318      1
  5319  5317  5319      1
  5320  5317  5320      1
  5321  5318  5321      1
  5322  5318  5322      1
  5323  5318  5323      1
  5324  5323  5324      1
  5325  5323  5325      1
  5326  5323  5326      1
  5327  5324  5327      1
  5328  5324  5328      1
  5329  5324  5329      1
  5330  5329  5330      1
  5331  5329  5331      1
  5332  5329  5332      1
  5333  5330  5333      1
  5334  5330  5334      1
  5335  5330  5335      1
  5336  5335  5336      1
  5337  5335  5337      1
  5338  5335  5338      1
  5339  5336  5339      1
  5340  5336  5340      1
  5341  5336  5341      1
  5342  5341  5342      1
  5343  5341  5343      1
  5344  5341  5344      1
  5345  5342  5345      1
  5346  5342  5346      1
  5347  5342  5347      1
  5348  5347  5348      1
  5349  5347  5349      1
  5350  5347  5350      1
  5351  5348  5351      1
  5352  5348  5352      1
  5353  5348  5353      1
  5354  5353  5354      1
  5355  5353  5355      1
  5356  5353  5356      1
  5357  5354  5357      1
  5358  5354  5358      1
  5359  5354  5359      1
  5360  5359  5360      1
  5361  5359  5361      1
  5362  5359  5362      1
  5363  5360  5363      1
  5364  5360  5364      1
  5365  5360  5365      1
  5366  5365  5366      1
  5367  5365  5367      1
  5368  5365  5368      1
  5369  5366  5369      1
  5370  5366  5370      1
  5371  5366  5371      1
  5372  5371  5372      1
  5373  5371  5373      1
  5374  5371  5374      1
  5375  5372  5375      1
  5376  5372  5376      1
  5377  5372  5377      1
  5378  5377  5378      1
  5379  5377  5379      1
  5380  5377  5380      1
  5381  5378  5381      1
  5382  5378  5382      1
  5383  5378  5383      1
  5384  5383  5384      1
  5385  5383  5385      1
  5386  5383  5386      1
  5387  5384  5387      1
  5388  5384  5388      1
  5389  5384  5389      1
  5390  5389  5390      1
  5391  5389  5391      1
  5392  5389  5392      1
  5393  5390  5393      1
  5394  5390  5394      1
  5395  5390  5395      1
  5396  5395  5396      1
  5397  5395  5397      1
  5398  5395  5398      1
  5399  5396  5399      1
  5400  5396  5400      1
  5401  5396  5401      1
  5402  5401  5402      1
  5403  5401  5403      1
  5404  5401  5404      1
  5405  5402  5405      1
  5406  5402  5406      1
  5407  5402  5407      1
  5408  5407  5408      1
  5409  5407  5409      1
  5410  5407  5410      1
  5411  5408  5411      1
  5412  5408  5412      1
  5413  5408  5413      1
  5414  5413  5414      1
  5415  5413  5415      1
  5416  5413  5416      1
  5417  5414  5417      1
  5418  5414  5418      1
  5419  5414  5419      1
  5420  5419  5420      1
  5421  5419  5421      1
  5422  5419  5422      1
  5423  5420  5423      1
  5424  5420  5424      1
  5425  5420  5425      1
  5426  5425  5426      1
  5427  5425  5427      1
  5428  5425  5428      1
  5429  5426  5429      1
  5430  5426  5430      1
  5431  5426  5431      1
  5432  5431  5432      1
  5433  5431  5433      1
  5434  5431  5434      1
  5435  5432  5435      1
  5436  5432  5436      1
  5437  5432  5437      1
  5438  5437  5438      1
  5439  5437  5439      1
  5440  5437  5440      1
  5441  5438  5441      1
  5442  5438  5442      1
  5443  5438  5443      1
  5444  5443  5444      1
  5445  5443  5445      1
  5446  5443  5446      1
  5447  5444  5447      1
  5448  5444  5448      1
  5449  5444  5449      1
  5450  5449  5450      1
  5451  5449  5451      1
  5452  5449  5452      1
  5453  5450  5453      1
  5454  5450  5454      1
  5455  5450  5455      1
  5456  5455  5456      1
  5457  5455  5457      1
  5458  5455  5458      1
  5459  5456  5459      1
  5460  5456  5460      1
  5461  5456  5461      1
  5462  5461  5462      1
  5463  5461  5463      1
  5464  5461  5464      1
  5465  5462  5465      1
  5466  5462  5466      1
  5467  5462  5467      1
  5468  5467  5468      1
  5469  5467  5469      1
  5470  5467  5470      1
  5471  5468  5471      1
  5472  5468  5472      1
  5473  5468  5473      1
  5474  5473  5474      1
  5475  5473  5475      1
  5476  5473  5476      1
  5477  5474  5477      1
  5478  5474  5478      1
  5479  5474  5479      1
  5480  5479  5480      1
  5481  5479  5481      1
  5482  5479  5482      1
  5483  5480  5483      1
  5484  5480  5484      1
  5485  5480  5485      1
  5486  5485  5486      1
  5487  5485  5487      1
  5488  5485  5488      1
  5489  5486  5489      1
  5490  5486  5490      1
  5491  5486  5491      1
  5492  5491  5492      1
  5493  5491  5493      1
  5494  5491  5494      1
  5495  5492  5495      1
  5496  5492  5496      1
  5497  5492  5497      1
  5498  5497  5498      1
  5499  5497  5499      1
  5500  5497  5500      1
  5501  5498  5501      1
  5502  5498  5502      1
  5503  5498  5503      1
  5504  5503  5504      1
  5505  5503  5505      1
  5506  5503  5506      1
  5507  5504  5507      1
  5508  5504  5508      1
  5509  5504  5509      1
  5510  5509  5510      1
  5511  5509  5511      1
  5512  5509  5512      1
  5513  5510  5513      1
  5514  5510  5514      1
  5515  5510  5515      1
  5516  5515  5516      1
  5517  5515  5517      1
  5518  5515  5518      1
  5519  5516  5519      1
  5520  5516  5520      1
  5521  5516  5521      1
  5522  5521  5522      1
  5523  5521  5523      1
  5524  5521  5524      1
  5525  5522  5525      1
  5526  5522  5526      1
  5527  5522  5527      1
  5528  5527  5528      1
  5529  5527  5529      1
  5530  5527  5530      1
  5531  5528  5531      1
  5532  5528  5532      1
  5533  5528  5533      1
  5534  5533  5534      1
  5535  5533  5535      1
  5536  5533  5536      1
  5537  5534  5537      1
  5538  5534  5538      1
  5539  5534  5539      1
  5540  5539  5540      1
  5541  5539  5541      1
  5542  5539  5542      1
  5543  5540  5543      1
  5544  5540  5544      1
  5545  5540  5545      1
  5546  5545  5546      1
  5547  5545  5547      1
  5548  5545  5548      1
  5549  5546  5549      1
  5550  5546  5550      1
  5551  5546  5551      1
  5552  5551  5552      1
  5553  5551  5553      1
  5554  5551  5554      1
  5555  5552  5555      1
  5556  5552  5556      1
  5557  5552  5557      1
  5558  5557  5558      1
  5559  5557  5559      1
  5560  5557  5560      1
  5561  5558  5561      1
  5562  5558  5562      1
  5563  5558  5563      1
  5564  5563  5564      1
  5565  5563  5565      1
  5566  5563  5566      1
  5567  5564  5567      1
  5568  5564  5568      1
  5569  5564  5569      1
  5570  5569  5570      1
  5571  5569  5571      1
  5572  5569  5572      1
  5573  5570  5573      1
  5574  5570  5574      1
  5575  5570  5575      1
  5576  5575  5576      1
  5577  5575  5577      1
  5578  5575  5578      1
  5579  5576  5579      1
  5580  5576  5580      1
  5581  5576  5581      1
  5582  5581  5582      1
  5583  5581  5583      1
  5584  5581  5584      1
  5585  5582  5585      1
  5586  5582  5586      1
  5587  5582  5587      1
  5588  5587  5588      1
  5589  5587  5589      1
  5590  5587  5590      1
  5591  5588  5591      1
  5592  5588  5592      1
  5593  5588  5593      1
  5594  5593  5594      1
  5595  5593  5595      1
  5596  5593  5596      1
  5597  5594  5597      1
  5598  5594  5598      1
  5599  5594  5599      1
  5600  5599  5600      1
  5601  5599  5601      1
  5602  5599  5602      1
  5603  5600  5603      1
  5604  5600  5604      1
  5605  5600  5605      1
  5606  5605  5606      1
  5607  5605  5607      1
  5608  5605  5608      1
  5609  5606  5609      1
  5610  5606  5610      1
  5611  5606  5611      1
  5612  5611  5612      1
  5613  5611  5613      1
  5614  5611  5614      1
  5615  5612  5615      1
  5616  5612  5616      1
  5617  5612  5617      1
  5618  5617  5618      1
  5619  5617  5619      1
  5620  5617  5620      1
  5621  5618  5621      1
  5622  5618  5622      1
  5623  5618  5623      1
  5624  5623  5624      1
  5625  5623  5625      1
  5626  5623  5626      1
  5627  5624  5627      1
  5628  5624  5628      1
  5629  5624  5629      1
  5630  5629  5630      1
  5631  5629  5631      1
  5632  5629  5632      1
  5633  5630  5633      1
  5634  5630  5634      1
  5635  5630  5635      1
  5636  5635  5636      1
  5637  5635  5637      1
  5638  5635  5638      1
  5639  5636  5639      1
  5640  5636  5640      1
  5641  5636  5641      1
  5642  5641  5642      1
  5643  5641  5643      1
  5644  5641  5644      1
  5645  5642  5645      1
  5646  5642  5646      1
  5647  5642  5647      1
  5648  5647  5648      1
  5649  5647  5649      1
  5650  5647  5650      1
  5651  5648  5651      1
  5652  5648  5652      1
  5653  5648  5653      1
  5654  5653  5654      1
  5655  5653  5655      1
  5656  5653  5656      1
  5657  5654  5657      1
  5658  5654  5658      1
  5659  5654  5659      1
  5660  5659  5660      1
  5661  5659  5661      1
  5662  5659  5662      1
  5663  5660  5663      1
  5664  5660  5664      1
  5665  5660  5665      1
  5666  5665  5666      1
  5667  5665  5667      1
  5668  5665  5668      1
  5669  5666  5669      1
  5670  5666  5670      1
  5671  5666  5671      1
  5672  5671  5672      1
  5673  5671  5673      1
  5674  5671  5674      1
  5675  5672  5675      1
  5676  5672  5676      1
  5677  5672  5677      1
  5678  5677  5678      1
  5679  5677  5679      1
  5680  5677  5680      1
  5681  5678  5681      1
  5682  5678  5682      1
  5683  5678  5683      1
  5684  5683  5684      1
  5685  5683  5685      1
  5686  5683  5686      1
  5687  5684  5687      1
  5688  5684  5688      1
  5689  5684  5689      1
  5690  5689  5690      1
  5691  5689  5691      1
  5692  5689  5692      1
  5693  5690  5693      1
  5694  5690  5694      1
  5695  5690  5695      1
  5696  5695  5696      1
  5697  5695  5697      1
  5698  5695  5698      1
  5699  5696  5699      1
  5700  5696  5700      1
  5701  5696  5701      1
  5702  5701  5702      1
  5703  5701  5703      1
  5704  5701  5704      1
  5705  5702  5705      1
  5706  5702  5706      1
  5707  5702  5707      1
  5708  5707  5708      1
  5709  5707  5709      1
  5710  5707  5710      1
  5711  5708  5711      1
  5712  5708  5712      1
  5713  5708  5713      1
  5714  5713  5714      1
  5715  5713  5715      1
  5716  5713  5716      1
  5717  5714  5717      1
  5718  5714  5718      1
  5719  5714  5719      1
  5720  5719  5720      1
  5721  5719  5721      1
  5722  5719  5722      1
  5723  5720  5723      1
  5724  5720  5724      1
  5725  5720  5725      1
  5726  5725  5726      1
  5727  5725  5727      1
  5728  5725  5728      1
  5729  5726  5729      1
  5730  5726  5730      1
  5731  5726  5731      1
  5732  5731  5732      1
  5733  5731  5733      1
  5734  5731  5734      1
  5735  5732  5735      1
  5736  5732  5736      1
  5737  5732  5737      1
  5738  5737  5738      1
  5739  5737  5739      1
  5740  5737  5740      1
  5741  5738  5741      1
  5742  5738  5742      1
  5743  5738  5743      1
  5744  5743  5744      1
  5745  5743  5745      1
  5746  5743  5746      1
  5747  5744  5747      1
  5748  5744  5748      1
  5749  5744  5749      1
  5750  5749  5750      1
  5751  5749  5751      1
  5752  5749  5752      1
  5753  5750  5753      1
  5754  5750  5754      1
  5755  5750  5755      1
  5756  5755  5756      1
  5757  5755  5757      1
  5758  5755  5758      1
  5759  5756  5759      1
  5760  5756  5760      1
  5761  5756  5761      1
  5762  5761  5762      1
  5763  5761  5763      1
  5764  5761  5764      1
  5765  5762  5765      1
  5766  5762  5766      1
  5767  5762  5767      1
  5768  5767  5768      1
  5769  5767  5769      1
  5770  5767  5770      1
  5771  5768  5771      1
  5772  5768  5772      1
  5773  5768  5773      1
  5774  5773  5774      1
  5775  5773  5775      1
  5776  5773  5776      1
  5777  5774  5777      1
  5778  5774  5778      1
  5779  5774  5779      1
  5780  5779  5780      1
  5781  5779  5781      1
  5782  5779  5782      1
  5783  5780  5783      1
  5784  5780  5784      1
  5785  5780  5785      1
  5786  5785  5786      1
  5787  5785  5787      1
  5788  5785  5788      1
  5789  5786  5789      1
  5790  5786  5790      1
  5791  5786  5791      1
  5792  5791  5792      1
  5793  5791  5793      1
  5794  5791  5794      1
  5795  5792  5795      1
  5796  5792  5796      1
  5797  5792  5797      1
  5798  5797  5798      1
  5799  5797  5799      1
  5800  5797  5800      1
  5801  5798  5801      1
  5802  5798  5802      1
  5803  5798  5803      1
  5804  5803  5804      1
  5805  5803  5805      1
  5806  5803  5806      1
  5807  5804  5807      1
  5808  5804  5808      1
  5809  5804  5809      1
  5810  5809  5810      1
  5811  5809  5811      1
  5812  5809  5812      1
  5813  5810  5813      1
  5814  5810  5814      1
  5815  5810  5815      1
  5816  5815  5816      1
  5817  5815  5817      1
  5818  5815  5818      1
  5819  5816  5819      1
  5820  5816  5820      1
  5821  5816  5821      1
  5822  5821  5822      1
  5823  5821  5823      1
  5824  5821  5824      1
  5825  5822  5825      1
  5826  5822  5826      1
  5827  5822  5827      1
  5828  5827  5828      1
  5829  5827  5829      1
  5830  5827  5830      1
  5831  5828  5831      1
  5832  5828  5832      1
  5833  5828  5833      1
  5834  5833  5834      1
  5835  5833  5835      1
  5836  5833  5836      1
  5837  5834  5837      1
  5838  5834  5838      1
  5839  5834  5839      1
  5840  5839  5840      1
  5841  5839  5841      1
  5842  5839  5842      1
  5843  5840  5843      1
  5844  5840  5844      1
  5845  5840  5845      1
  5846  5845  5846      1
  5847  5845  5847      1
  5848  5845  5848      1
  5849  5846  5849      1
  5850  5846  5850      1
  5851  5846  5851      1
  5852  5851  5852      1
  5853  5851  5853      1
  5854  5851  5854      1
  5855  5852  5855      1
  5856  5852  5856      1
  5857  5852  5857      1
  5858  5857  5858      1
  5859  5857  5859      1
  5860  5857  5860      1
  5861  5858  5861      1
  5862  5858  5862      1
  5863  5858  5863      1
  5864  5863  5864      1
  5865  5863  5865      1
  5866  5863  5866      1
  5867  5864  5867      1
  5868  5864  5868      1
  5869  5864  5869      1
  5870  5869  5870      1
  5871  5869  5871      1
  5872  5869  5872      1
  5873  5870  5873      1
  5874  5870  5874      1
  5875  5870  5875      1
  5876  5875  5876      1
  5877  5875  5877      1
  5878  5875  5878      1
  5879  5876  5879      1
  5880  5876  5880      1
  5881  5876  5881      1
  5882  5881  5882      1
  5883  5881  5883      1
  5884  5881  5884      1
  5885  5882  5885      1
  5886  5882  5886      1
  5887  5882  5887      1
  5888  5887  5888      1
  5889  5887  5889      1
  5890  5887  5890      1
  5891  5888  5891      1
  5892  5888  5892      1
  5893  5888  5893      1
  5894  5893  5894      1
  5895  5893  5895      1
  5896  5893  5896      1
  5897  5894  5897      1
  5898  5894  5898      1
  5899  5894  5899      1
  5900  5899  5900      1
  5901  5899  5901      1
  5902  5899  5902      1
  5903  5900  5903      1
  5904  5900  5904      1
  5905  5900  5905      1
  5906  5905  5906      1
  5907  5905  5907      1
  5908  5905  5908      1
  5909  5906  5909      1
  5910  5906  5910      1
  5911  5906  5911      1
  5912  5911  5912      1
  5913  5911  5913      1
  5914  5911  5914      1
  5915  5912  5915      1
  5916  5912  5916      1
  5917  5912  5917      1
  5918  5917  5918      1
  5919  5917  5919      1
  5920  5917  5920      1
  5921  5918  5921      1
  5922  5918  5922      1
  5923  5918  5923      1
  5924  5923  5924      1
  5925  5923  5925      1
  5926  5923  5926      1
  5927  5924  5927      1
  5928  5924  5928      1
  5929  5924  5929      1
  5930  5929  5930      1
  5931  5929  5931      1
  5932  5929  5932      1
  5933  5930  5933      1
  5934  5930  5934      1
  5935  5930  5935      1
  5936  5935  5936      1
  5937  5935  5937      1
  5938  5935  5938      1
  5939  5936  5939      1
  5940  5936  5940      1
  5941  5936  5941      1
  5942  5941  5942      1
  5943  5941  5943      1
  5944  5941  5944      1
  5945  5942  5945      1
  5946  5942  5946      1
  5947  5942  5947      1
  5948  5947  5948      1
  5949  5947  5949      1
  5950  5947  5950      1
  5951  5948  5951      1
  5952  5948  5952      1
  5953  5948  5953      1
  5954  5953  5954      1
  5955  5953  5955      1
  5956  5953  5956      1
  5957  5954  5957      1
  5958  5954  5958      1
  5959  5954  5959      1
  5960  5959  5960      1
  5961  5959  5961      1
  5962  5959  5962      1
  5963  5960  5963      1
  5964  5960  5964      1
  5965  5960  5965      1
  5966  5965  5966      1
  5967  5965  5967      1
  5968  5965  5968      1
  5969  5966  5969      1
  5970  5966  5970      1
  5971  5966  5971      1
  5972  5971  5972      1
  5973  5971  5973      1
  5974  5971  5974      1
  5975  5972  5975      1
  5976  5972  5976      1
  5977  5972  5977      1
  5978  5977  5978      1
  5979  5977  5979      1
  5980  5977  5980      1
  5981  5978  5981      1
  5982  5978  5982      1
  5983  5978  5983      1
  5984  5983  5984      1
  5985  5983  5985      1
  5986  5983  5986      1
  5987  5984  5987      1
  5988  5984  5988      1
  5989  5984  5989      1
  5990  5989  5990      1
  5991  5989  5991      1
  5992  5989  5992      1
  5993  5990  5993      1
  5994  5990  5994      1
  5995  5990  5995      1
  5996  5995  5996      1
  5997  5995  5997      1
  5998  5995  5998      1
  5999  5996  5999      1
  6000  5996  6000      1
  6001  5996  6001      1
  6002  6001  6002      1
  6003  6001  6003      1
  6004  6001  6004      1
  6005  6002  6005      1
  6006  6002  6006      1
  6007  6002  6007      1
  6008  6007  6008      1
  6009  6007  6009      1
  6010  6007  6010      1
  6011  6008  6011      1
  6012  6008  6012      1
  6013  6008  6013      1
  6014  6013  6014      1
  6015  6013  6015      1
  6016  6013  6016      1
  6017  6014  6017      1
  6018  6014  6018      1
  6019  6014  6019      1
  6020  6019  6020      1
  6021  6019  6021      1
  6022  6019  6022      1
  6023  6020  6023      1
  6024  6020  6024      1
  6025  6020  6025      1
  6026  6025  6026      1
  6027  6025  6027      1
  6028  6025  6028      1
  6029  6026  6029      1
  6030  6026  6030      1
  6031  6026  6031      1
  6032  6031  6032      1
  6033  6031  6033      1
  6034  6031  6034      1
  6035  6032  6035      1
  6036  6032  6036      1
  6037  6032  6037      1
  6038  6037  6038      1
  6039  6037  6039      1
  6040  6037  6040      1
  6041  6038  6041      1
  6042  6038  6042      1
  6043  6038  6043      1
  6044  6043  6044      1
  6045  6043  6045      1
  6046  6043  6046      1
  6047  6044  6047      1
  6048  6044  6048      1
  6049  6044  6049      1
  6050  6049  6050      1
  6051  6049  6051      1
  6052  6049  6052      1
  6053  6050  6053      1
  6054  6050  6054      1
  6055  6050  6055      1
  6056  6055  6056      1
  6057  6055  6057      1
  6058  6055  6058      1
  6059  6056  6059      1
  6060  6056  6060      1
  6061  6056  6061      1
  6062  6061  6062      1
  6063  6061  6063      1
  6064  6061  6064      1
  6065  6062  6065      1
  6066  6062  6066      1
  6067  6062  6067      1
  6068  6067  6068      1
  6069  6067  6069      1
  6070  6067  6070      1
  6071  6068  6071      1
  6072  6068  6072      1
  6073  6068  6073      1
  6074  6073  6074      1
  6075  6073  6075      1
  6076  6073  6076      1
  6077  6074  6077      1
  6078  6074  6078      1
  6079  6074  6079      1
  6080  6079  6080      1
  6081  6079  6081      1
  6082  6079  6082      1
  6083  6080  6083      1
  6084  6080  6084      1
  6085  6080  6085      1
  6086  6085  6086      1
  6087  6085  6087      1
  6088  6085  6088      1
  6089  6086  6089      1
  6090  6086  6090      1
  6091  6086  6091      1
  6092  6091  6092      1
  6093  6091  6093      1
  6094  6091  6094      1
  6095  6092  6095      1
  6096  6092  6096      1
  6097  6092  6097      1
  6098  6097  6098      1
  6099  6097  6099      1
  6100  6097  6100      1
  6101  6098  6101      1
  6102  6098  6102      1
  6103  6098  6103      1
  6104  6103  6104      1
  6105  6103  6105      1
  6106  6103  6106      1
  6107  6104  6107      1
  6108  6104  6108      1
  6109  6104  6109      1
  6110  6109  6110      1
  6111  6109  6111      1
  6112  6109  6112      1
  6113  6110  6113      1
  6114  6110  6114      1
  6115  6110  6115      1
  6116  6115  6116      1
  6117  6115  6117      1
  6118  6115  6118      1
  6119  6116  6119      1
  6120  6116  6120      1
  6121  6116  6121      1
  6122  6121  6122      1
  6123  6121  6123      1
  6124  6121  6124      1
  6125  6122  6125      1
  6126  6122  6126      1
  6127  6122  6127      1
  6128  6127  6128      1
  6129  6127  6129      1
  6130  6127  6130      1
  6131  6128  6131      1
  6132  6128  6132      1
  6133  6128  6133      1
  6134  6133  6134      1
  6135  6133  6135      1
  6136  6133  6136      1
  6137  6134  6137      1
  6138  6134  6138      1
  6139  6134  6139      1
  6140  6139  6140      1
  6141  6139  6141      1
  6142  6139  6142      1
  6143  6140  6143      1
  6144  6140  6144      1
  6145  6140  6145      1
  6146  6145  6146      1
  6147  6145  6147      1
  6148  6145  6148      1
  6149  6146  6149      1
  6150  6146  6150      1
  6151  6146  6151      1
  6152  6151  6152      1
  6153  6151  6153      1
  6154  6151  6154      1
  6155  6152  6155      1
  6156  6152  6156      1
  6157  6152  6157      1
  6158  6157  6158      1
  6159  6157  6159      1
  6160  6157  6160      1
  6161  6158  6161      1
  6162  6158  6162      1
  6163  6158  6163      1
  6164  6163  6164      1
  6165  6163  6165      1
  6166  6163  6166      1
  6167  6164  6167      1
  6168  6164  6168      1
  6169  6164  6169      1
  6170  6169  6170      1
  6171  6169  6171      1
  6172  6169  6172      1
  6173  6170  6173      1
  6174  6170  6174      1
  6175  6170  6175      1
  6176  6175  6176      1
  6177  6175  6177      1
  6178  6175  6178      1
  6179  6176  6179      1
  6180  6176  6180      1
  6181  6176  6181      1
  6182  6181  6182      1
  6183  6181  6183      1
  6184  6181  6184      1
  6185  6182  6185      1
  6186  6182  6186      1
  6187  6182  6187      1
  6188  6187  6188      1
  6189  6187  6189      1
  6190  6187  6190      1
  6191  6188  6191      1
  6192  6188  6192      1
  6193  6188  6193      1
  6194  6193  6194      1
  6195  6193  6195      1
  6196  6193  6196      1
  6197  6194  6197      1
  6198  6194  6198      1
  6199  6194  6199      1
  6200  6199  6200      1
  6201  6199  6201      1
  6202  6199  6202      1
  6203  6200  6203      1
  6204  6200  6204      1
  6205  6200  6205      1
  6206  6205  6206      1
  6207  6205  6207      1
  6208  6205  6208      1
  6209  6206  6209      1
  6210  6206  6210      1
  6211  6206  6211      1
  6212  6211  6212      1
  6213  6211  6213      1
  6214  6211  6214      1
  6215  6212  6215      1
  6216  6212  6216      1
  6217  6212  6217      1
  6218  6217  6218      1
  6219  6217  6219      1
  6220  6217  6220      1
  6221  6218  6221      1
  6222  6218  6222      1
  6223  6218  6223      1
  6224  6223  6224      1
  6225  6223  6225      1
  6226  6223  6226      1
  6227  6224  6227      1
  6228  6224  6228      1
  6229  6224  6229      1
  6230  6229  6230      1
  6231  6229  6231      1
  6232  6229  6232      1
  6233  6230  6233      1
  6234  6230  6234      1
  6235  6230  6235      1
  6236  6235  6236      1
  6237  6235  6237      1
  6238  6235  6238      1
  6239  6236  6239      1
  6240  6236  6240      1
  6241  6236  6241      1
  6242  6241  6242      1
  6243  6241  6243      1
  6244  6241  6244      1
  6245  6242  6245      1
  6246  6242  6246      1
  6247  6242  6247      1
  6248  6247  6248      1
  6249  6247  6249      1
  6250  6247  6250      1
  6251  6248  6251      1
  6252  6248  6252      1
  6253  6248  6253      1
  6254  6253  6254      1
  6255  6253  6255      1
  6256  6253  6256      1
  6257  6254  6257      1
  6258  6254  6258      1
  6259  6254  6259      1
  6260  6259  6260      1
  6261  6259  6261      1
  6262  6259  6262      1
  6263  6260  6263      1
  6264  6260  6264      1
  6265  6260  6265      1
  6266  6265  6266      1
  6267  6265  6267      1
  6268  6265  6268      1
  6269  6266  6269      1
  6270  6266  6270      1
  6271  6266  6271      1
  6272  6271  6272      1
  6273  6271  6273      1
  6274  6271  6274      1
  6275  6272  6275      1
  6276  6272  6276      1
  6277  6272  6277      1
  6278  6277  6278      1
  6279  6277  6279      1
  6280  6277  6280      1
  6281  6278  6281      1
  6282  6278  6282      1
  6283  6278  6283      1
  6284  6283  6284      1
  6285  6283  6285      1
  6286  6283  6286      1
  6287  6284  6287      1
  6288  6284  6288      1
  6289  6284  6289      1
  6290  6289  6290      1
  6291  6289  6291      1
  6292  6289  6292      1
  6293  6290  6293      1
  6294  6290  6294      1
  6295  6290  6295      1
  6296  6295  6296      1
  6297  6295  6297      1
  6298  6295  6298      1
  6299  6296  6299      1
  6300  6296  6300      1
  6301  6296  6301      1
  6302  6301  6302      1
  6303  6301  6303      1
  6304  6301  6304      1
  6305  6302  6305      1
  6306  6302  6306      1
  6307  6302  6307      1
  6308  6307  6308      1
  6309  6307  6309      1
  6310  6307  6310      1
  6311  6308  6311      1
  6312  6308  6312      1
  6313  6308  6313      1
  6314  6313  6314      1
  6315  6313  6315      1
  6316  6313  6316      1
  6317  6314  6317      1
  6318  6314  6318      1
  6319  6314  6319      1
  6320  6319  6320      1
  6321  6319  6321      1
  6322  6319  6322      1
  6323  6320  6323      1
  6324  6320  6324      1
  6325  6320  6325      1
  6326  6325  6326      1
  6327  6325  6327      1
  6328  6325  6328      1
  6329  6326  6329      1
  6330  6326  6330      1
  6331  6326  6331      1
  6332  6331  6332      1
  6333  6331  6333      1
  6334  6331  6334      1
  6335  6332  6335      1
  6336  6332  6336      1
  6337  6332  6337      1
  6338  6337  6338      1
  6339  6337  6339      1
  6340  6337  6340      1
  6341  6338  6341      1
  6342  6338  6342      1
  6343  6338  6343      1
  6344  6343  6344      1
  6345  6343  6345      1
  6346  6343  6346      1
  6347  6344  6347      1
  6348  6344  6348      1
  6349  6344  6349      1
  6350  6349  6350      1
  6351  6349  6351      1
  6352  6349  6352      1
  6353  6350  6353      1
  6354  6350  6354      1
  6355  6350  6355      1
  6356  6355  6356      1
  6357  6355  6357      1
  6358  6355  6358      1
  6359  6356  6359      1
  6360  6356  6360      1
  6361  6356  6361      1
  6362  6361  6362      1
  6363  6361  6363      1
  6364  6361  6364      1
  6365  6362  6365      1
  6366  6362  6366      1
  6367  6362  6367      1
  6368  6367  6368      1
  6369  6367  6369      1
  6370  6367  6370      1
  6371  6368  6371      1
  6372  6368  6372      1
  6373  6368  6373      1
  6374  6373  6374      1
  6375  6373  6375      1
  6376  6373  6376      1
  6377  6374  6377      1
  6378  6374  6378      1
  6379  6374  6379      1
  6380  6379  6380      1
  6381  6379  6381      1
  6382  6379  6382      1
  6383  6380  6383      1
  6384  6380  6384      1
  6385  6380  6385      1
  6386  6385  6386      1
  6387  6385  6387      1
  6388  6385  6388      1
  6389  6386  6389      1
  6390  6386  6390      1
  6391  6386  6391      1
  6392  6391  6392      1
  6393  6391  6393      1
  6394  6391  6394      1
  6395  6392  6395      1
  6396  6392  6396      1
  6397  6392  6397      1
  6398  6397  6398      1
  6399  6397  6399      1
  6400  6397  6400      1
  6401  6398  6401      1
  6402  6398  6402      1
  6403  6398  6403      1
  6404  6403  6404      1
  6405  6403  6405      1
  6406  6403  6406      1
  6407  6404  6407      1
  6408  6404  6408      1
  6409  6404  6409      1
  6410  6409  6410      1
  6411  6409  6411      1
  6412  6409  6412      1
  6413  6410  6413      1
  6414  6410  6414      1
  6415  6410  6415      1
  6416  6415  6416      1
  6417  6415  6417      1
  6418  6415  6418      1
  6419  6416  6419      1
  6420  6416  6420      1
  6421  6416  6421      1
  6422  6421  6422      1
  6423  6421  6423      1
  6424  6421  6424      1
  6425  6422  6425      1
  6426  6422  6426      1
  6427  6422  6427      1
  6428  6427  6428      1
  6429  6427  6429      1
  6430  6427  6430      1
  6431  6428  6431      1
  6432  6428  6432      1
  6433  6428  6433      1
  6434  6433  6434      1
  6435  6433  6435      1
  6436  6433  6436      1
  6437  6434  6437      1
  6438  6434  6438      1
  6439  6434  6439      1
  6440  6439  6440      1
  6441  6439  6441      1
  6442  6439  6442      1
  6443  6440  6443      1
  6444  6440  6444      1
  6445  6440  6445      1
  6446  6445  6446      1
  6447  6445  6447      1
  6448  6445  6448      1
  6449  6446  6449      1
  6450  6446  6450      1
  6451  6446  6451      1
  6452  6451  6452      1
  6453  6451  6453      1
  6454  6451  6454      1
  6455  6452  6455      1
  6456  6452  6456      1
  6457  6452  6457      1
  6458  6457  6458      1
  6459  6457  6459      1
  6460  6457  6460      1
  6461  6458  6461      1
  6462  6458  6462      1
  6463  6458  6463      1
  6464  6463  6464      1
  6465  6463  6465      1
  6466  6463  6466      1
  6467  6464  6467      1
  6468  6464  6468      1
  6469  6464  6469      1
  6470  6469  6470      1
  6471  6469  6471      1
  6472  6469  6472      1
  6473  6470  6473      1
  6474  6470  6474      1
  6475  6470  6475      1
  6476  6475  6476      1
  6477  6475  6477      1
  6478  6475  6478      1
  6479  6476  6479      1
  6480  6476  6480      1
  6481  6476  6481      1
  6482  6481  6482      1
  6483  6481  6483      1
  6484  6481  6484      1
  6485  6482  6485      1
  6486  6482  6486      1
  6487  6482  6487      1
  6488  6487  6488      1
  6489  6487  6489      1
  6490  6487  6490      1
  6491  6488  6491      1
  6492  6488  6492      1
  6493  6488  6493      1
  6494  6493  6494      1
  6495  6493  6495      1
  6496  6493  6496      1
  6497  6494  6497      1
  6498  6494  6498      1
  6499  6494  6499      1
  6500  6499  6500      1
  6501  6499  6501      1
  6502  6499  6502      1
  6503  6500  6503      1
  6504  6500  6504      1
  6505  6500  6505      1
  6506  6505  6506      1
  6507  6505  6507      1
  6508  6505  6508      1
  6509  6506  6509      1
  6510  6506  6510      1
  6511  6506  6511      1
  6512  6511  6512      1
  6513  6511  6513      1
  6514  6511  6514      1
  6515  6512  6515      1
  6516  6512  6516      1
  6517  6512  6517      1
  6518  6517  6518      1
  6519  6517  6519      1
  6520  6517  6520      1
  6521  6518  6521      1
  6522  6518  6522      1
  6523  6518  6523      1
  6524  6523  6524      1
  6525  6523  6525      1
  6526  6523  6526      1
  6527  6524  6527      1
  6528  6524  6528      1
  6529  6524  6529      1
  6530  6529  6530      1
  6531  6529  6531      1
  6532  6529  6532      1
  6533  6530  6533      1
  6534  6530  6534      1
  6535  6530  6535      1
  6536  6535  6536      1
  6537  6535  6537      1
  6538  6535  6538      1
  6539  6536  6539      1
  6540  6536  6540      1
  6541  6536  6541      1
  6542  6541  6542      1
  6543  6541  6543      1
  6544  6541  6544      1
  6545  6542  6545      1
  6546  6542  6546      1
  6547  6542  6547      1
  6548  6547  6548      1
  6549  6547  6549      1
  6550  6547  6550      1
  6551  6548  6551      1
  6552  6548  6552      1
  6553  6548  6553      1
  6554  6553  6554      1
  6555  6553  6555      1
  6556  6553  6556      1
  6557  6554  6557      1
  6558  6554  6558      1
  6559  6554  6559      1
  6560  6559  6560      1
  6561  6559  6561      1
  6562  6559  6562      1
  6563  6560  6563      1
  6564  6560  6564      1
  6565  6560  6565      1
  6566  6565  6566      1
  6567  6565  6567      1
  6568  6565  6568      1
  6569  6566  6569      1
  6570  6566  6570      1
  6571  6566  6571      1
  6572  6571  6572      1
  6573  6571  6573      1
  6574  6571  6574      1
  6575  6572  6575      1
  6576  6572  6576      1
  6577  6572  6577      1
  6578  6577  6578      1
  6579  6577  6579      1
  6580  6577  6580      1
  6581  6578  6581      1
  6582  6578  6582      1
  6583  6578  6583      1
  6584  6583  6584      1
  6585  6583  6585      1
  6586  6583  6586      1
  6587  6584  6587      1
  6588  6584  6588      1
  6589  6584  6589      1
  6590  6589  6590      1
  6591  6589  6591      1
  6592  6589  6592      1
  6593  6590  6593      1
  6594  6590  6594      1
  6595  6590  6595      1
  6596  6595  6596      1
  6597  6595  6597      1
  6598  6595  6598      1
  6599  6596  6599      1
  6600  6596  6600      1
  6601  6596  6601      1
  6602  6601  6602      1
  6603  6601  6603      1
  6604  6601  6604      1
  6605  6602  6605      1
  6606  6602  6606      1
  6607  6602  6607      1
  6608  6607  6608      1
  6609  6607  6609      1
  6610  6607  6610      1
  6611  6608  6611      1
  6612  6608  6612      1
  6613  6608  6613      1
  6614  6613  6614      1
  6615  6613  6615      1
  6616  6613  6616      1
  6617  6614  6617      1
  6618  6614  6618      1
  6619  6614  6619      1
  6620  6619  6620      1
  6621  6619  6621      1
  6622  6619  6622      1
  6623  6620  6623      1
  6624  6620  6624      1
  6625  6620  6625      1
  6626  6625  6626      1
  6627  6625  6627      1
  6628  6625  6628      1
  6629  6626  6629      1
  6630  6626  6630      1
  6631  6626  6631      1
  6632  6631  6632      1
  6633  6631  6633      1
  6634  6631  6634      1
  6635  6632  6635      1
  6636  6632  6636      1
  6637  6632  6637      1
  6638  6637  6638      1
  6639  6637  6639      1
  6640  6637  6640      1
  6641  6638  6641      1
  6642  6638  6642      1
  6643  6638  6643      1
  6644  6643  6644      1
  6645  6643  6645      1
  6646  6643  6646      1
  6647  6644  6647      1
  6648  6644  6648      1
  6649  6644  6649      1
  6650  6649  6650      1
  6651  6649  6651      1
  6652  6649  6652      1
  6653  6650  6653      1
  6654  6650  6654      1
  6655  6650  6655      1
  6656  6655  6656      1
  6657  6655  6657      1
  6658  6655  6658      1
  6659  6656  6659      1
  6660  6656  6660      1
  6661  6656  6661      1
  6662  6661  6662      1
  6663  6661  6663      1
  6664  6661  6664      1
  6665  6662  6665      1
  6666  6662  6666      1
  6667  6662  6667      1
  6668  6667  6668      1
  6669  6667  6669      1
  6670  6667  6670      1
  6671  6668  6671      1
  6672  6668  6672      1
  6673  6668  6673      1
  6674  6673  6674      1
  6675  6673  6675      1
  6676  6673  6676      1
  6677  6674  6677      1
  6678  6674  6678      1
  6679  6674  6679      1
  6680  6679  6680      1
  6681  6679  6681      1
  6682  6679  6682      1
  6683  6680  6683      1
  6684  6680  6684      1
  6685  6680  6685      1
  6686  6685  6686      1
  6687  6685  6687      1
  6688  6685  6688      1
  6689  6686  6689      1
  6690  6686  6690      1
  6691  6686  6691      1
  6692  6691  6692      1
  6693  6691  6693      1
  6694  6691  6694      1
  6695  6692  6695      1
  6696  6692  6696      1
  6697  6692  6697      1
  6698  6697  6698      1
  6699  6697  6699      1
  6700  6697  6700      1
  6701  6698  6701      1
  6702  6698  6702      1
  6703  6698  6703      1
  6704  6703  6704      1
  6705  6703  6705      1
  6706  6703  6706      1
  6707  6704  6707      1
  6708  6704  6708      1
  6709  6704  6709      1
  6710  6709  6710      1
  6711  6709  6711      1
  6712  6709  6712      1
  6713  6710  6713      1
  6714  6710  6714      1
  6715  6710  6715      1
  6716  6715  6716      1
  6717  6715  6717      1
  6718  6715  6718      1
  6719  6716  6719      1
  6720  6716  6720      1
  6721  6716  6721      1
  6722  6721  6722      1
  6723  6721  6723      1
  6724  6721  6724      1
  6725  6722  6725      1
  6726  6722  6726      1
  6727  6722  6727      1
  6728  6727  6728      1
  6729  6727  6729      1
  6730  6727  6730      1
  6731  6728  6731      1
  6732  6728  6732      1
  6733  6728  6733      1
  6734  6733  6734      1
  6735  6733  6735      1
  6736  6733  6736      1
  6737  6734  6737      1
  6738  6734  6738      1
  6739  6734  6739      1
  6740  6739  6740      1
  6741  6739  6741      1
  6742  6739  6742      1
  6743  6740  6743      1
  6744  6740  6744      1
  6745  6740  6745      1
  6746  6745  6746      1
  6747  6745  6747      1
  6748  6745  6748      1
  6749  6746  6749      1
  6750  6746  6750      1
  6751  6746  6751      1
  6752  6751  6752      1
  6753  6751  6753      1
  6754  6751  6754      1
  6755  6752  6755      1
  6756  6752  6756      1
  6757  6752  6757      1
  6758  6757  6758      1
  6759  6757  6759      1
  6760  6757  6760      1
  6761  6758  6761      1
  6762  6758  6762      1
  6763  6758  6763      1
  6764  6763  6764      1
  6765  6763  6765      1
  6766  6763  6766      1
  6767  6764  6767      1
  6768  6764  6768      1
  6769  6764  6769      1
  6770  6769  6770      1
  6771  6769  6771      1
  6772  6769  6772      1
  6773  6770  6773      1
  6774  6770  6774      1
  6775  6770  6775      1
  6776  6775  6776      1
  6777  6775  6777      1
  6778  6775  6778      1
  6779  6776  6779      1
  6780  6776  6780      1
  6781  6776  6781      1
  6782  6781  6782      1
  6783  6781  6783      1
  6784  6781  6784      1
  6785  6782  6785      1
  6786  6782  6786      1
  6787  6782  6787      1
  6788  6787  6788      1
  6789  6787  6789      1
  6790  6787  6790      1
  6791  6788  6791      1
  6792  6788  6792      1
  6793  6788  6793      1
  6794  6793  6794      1
  6795  6793  6795      1
  6796  6793  6796      1
  6797  6794  6797      1
  6798  6794  6798      1
  6799  6794  6799      1
  6800  6799  6800      1
  6801  6799  6801      1
  6802  6799  6802      1
  6803  6800  6803      1
  6804  6800  6804      1
  6805  6800  6805      1
  6806  6805  6806      1
  6807  6805  6807      1
  6808  6805  6808      1
  6809  6806  6809      1
  6810  6806  6810      1
  6811  6806  6811      1
  6812  6811  6812      1
  6813  6811  6813      1
  6814  6811  6814      1
  6815  6812  6815      1
  6816  6812  6816      1
  6817  6812  6817      1
  6818  6817  6818      1
  6819  6817  6819      1
  6820  6817  6820      1
  6821  6818  6821      1
  6822  6818  6822      1
  6823  6818  6823      1
  6824  6823  6824      1
  6825  6823  6825      1
  6826  6823  6826      1
  6827  6824  6827      1
  6828  6824  6828      1
  6829  6824  6829      1
  6830  6829  6830      1
  6831  6829  6831      1
  6832  6829  6832      1
  6833  6830  6833      1
  6834  6830  6834      1
  6835  6830  6835      1
  6836  6835  6836      1
  6837  6835  6837      1
  6838  6835  6838      1
  6839  6836  6839      1
  6840  6836  6840      1
  6841  6836  6841      1
  6842  6841  6842      1
  6843  6841  6843      1
  6844  6841  6844      1
  6845  6842  6845      1
  6846  6842  6846      1
  6847  6842  6847      1
  6848  6847  6848      1
  6849  6847  6849      1
  6850  6847  6850      1
  6851  6848  6851      1
  6852  6848  6852      1
  6853  6848  6853      1
  6854  6853  6854      1
  6855  6853  6855      1
  6856  6853  6856      1
  6857  6854  6857      1
  6858  6854  6858      1
  6859  6854  6859      1
  6860  6859  6860      1
  6861  6859  6861      1
  6862  6859  6862      1
  6863  6860  6863      1
  6864  6860  6864      1
  6865  6860  6865      1
  6866  6865  6866      1
  6867  6865  6867      1
  6868  6865  6868      1
  6869  6866  6869      1
  6870  6866  6870      1
  6871  6866  6871      1
  6872  6871  6872      1
  6873  6871  6873      1
  6874  6871  6874      1
  6875  6872  6875      1
  6876  6872  6876      1
  6877  6872  6877      1
  6878  6877  6878      1
  6879  6877  6879      1
  6880  6877  6880      1
  6881  6878  6881      1
  6882  6878  6882      1
  6883  6878  6883      1
  6884  6883  6884      1
  6885  6883  6885      1
  6886  6883  6886      1
  6887  6884  6887      1
  6888  6884  6888      1
  6889  6884  6889      1
  6890  6889  6890      1
  6891  6889  6891      1
  6892  6889  6892      1
  6893  6890  6893      1
  6894  6890  6894      1
  6895  6890  6895      1
  6896  6895  6896      1
  6897  6895  6897      1
  6898  6895  6898      1
  6899  6896  6899      1
  6900  6896  6900      1
  6901  6896  6901      1
  6902  6901  6902      1
  6903  6901  6903      1
  6904  6901  6904      1
  6905  6902  6905      1
  6906  6902  6906      1
  6907  6902  6907      1
  6908  6907  6908      1
  6909  6907  6909      1
  6910  6907  6910      1
  6911  6908  6911      1
  6912  6908  6912      1
  6913  6908  6913      1
  6914  6913  6914      1
  6915  6913  6915      1
  6916  6913  6916      1
  6917  6914  6917      1
  6918  6914  6918      1
  6919  6914  6919      1
  6920  6919  6920      1
  6921  6919  6921      1
  6922  6919  6922      1
  6923  6920  6923      1
  6924  6920  6924      1
  6925  6920  6925      1
  6926  6925  6926      1
  6927  6925  6927      1
  6928  6925  6928      1
  6929  6926  6929      1
  6930  6926  6930      1
  6931  6926  6931      1
  6932  6931  6932      1
  6933  6931  6933      1
  6934  6931  6934      1
  6935  6932  6935      1
  6936  6932  6936      1
  6937  6932  6937      1
  6938  6937  6938      1
  6939  6937  6939      1
  6940  6937  6940      1
  6941  6938  6941      1
  6942  6938  6942      1
  6943  6938  6943      1
  6944  6943  6944      1
  6945  6943  6945      1
  6946  6943  6946      1
  6947  6944  6947      1
  6948  6944  6948      1
  6949  6944  6949      1
  6950  6949  6950      1
  6951  6949  6951      1
  6952  6949  6952      1
  6953  6950  6953      1
  6954  6950  6954      1
  6955  6950  6955      1
  6956  6955  6956      1
  6957  6955  6957      1
  6958  6955  6958      1
  6959  6956  6959      1
  6960  6956  6960      1
  6961  6956  6961      1
  6962  6961  6962      1
  6963  6961  6963      1
  6964  6961  6964      1
  6965  6962  6965      1
  6966  6962  6966      1
  6967  6962  6967      1
  6968  6967  6968      1
  6969  6967  6969      1
  6970  6967  6970      1
  6971  6968  6971      1
  6972  6968  6972      1
  6973  6968  6973      1
  6974  6973  6974      1
  6975  6973  6975      1
  6976  6973  6976      1
  6977  6974  6977      1
  6978  6974  6978      1
  6979  6974  6979      1
  6980  6979  6980      1
  6981  6979  6981      1
  6982  6979  6982      1
  6983  6980  6983      1
  6984  6980  6984      1
  6985  6980  6985      1
  6986  6985  6986      1
  6987  6985  6987      1
  6988  6985  6988      1
  6989  6986  6989      1
  6990  6986  6990      1
  6991  6986  6991      1
  6992  6991  6992      1
  6993  6991  6993      1
  6994  6991  6994      1
  6995  6992  6995      1
  6996  6992  6996      1
  6997  6992  6997      1
  6998  6997  6998      1
  6999  6997  6999      1
  7000  6997  7000      1
  7001  6998  7001      1
  7002  6998  7002      1
  7003  6998  7003      1
  7004  7003  7004      1
  7005  7003  7005      1
  7006  7003  7006      1
  7007  7004  7007      1
  7008  7004  7008      1
  7009  7004  7009      1
  7010  7009  7010      1
  7011  7009  7011      1
  7012  7009  7012      1
  7013  7010  7013      1
  7014  7010  7014      1
  7015  7010  7015      1
  7016  7015  7016      1
  7017  7015  7017      1
  7018  7015  7018      1
  7019  7016  7019      1
  7020  7016  7020      1
  7021  7016  7021      1
  7022  7021  7022      1
  7023  7021  7023      1
  7024  7021  7024      1
  7025  7022  7025      1
  7026  7022  7026      1
  7027  7022  7027      1
  7028  7027  7028      1
  7029  7027  7029      1
  7030  7027  7030      1
  7031  7028  7031      1
  7032  7028  7032      1
  7033  7028  7033      1
  7034  7033  7034      1
  7035  7033  7035      1
  7036  7033  7036      1
  7037  7034  7037      1
  7038  7034  7038      1
  7039  7034  7039      1
  7040  7039  7040      1
  7041  7039  7041      1
  7042  7039  7042      1
  7043  7040  7043      1
  7044  7040  7044      1
  7045  7040  7045      1
  7046  7045  7046      1
  7047  7045  7047      1
  7048  7045  7048      1
  7049  7046  7049      1
  7050  7046  7050      1
  7051  7046  7051      1
  7052  7051  7052      1
  7053  7051  7053      1
  7054  7051  7054      1
  7055  7052  7055      1
  7056  7052  7056      1
  7057  7052  7057      1
  7058  7057  7058      1
  7059  7057  7059      1
  7060  7057  7060      1
  7061  7058  7061      1
  7062  7058  7062      1
  7063  7058  7063      1
  7064  7063  7064      1
  7065  7063  7065      1
  7066  7063  7066      1
  7067  7064  7067      1
  7068  7064  7068      1
  7069  7064  7069      1
  7070  7069  7070      1
  7071  7069  7071      1
  7072  7069  7072      1
  7073  7070  7073      1
  7074  7070  7074      1
  7075  7070  7075      1
  7076  7075  7076      1
  7077  7075  7077      1
  7078  7075  7078      1
  7079  7076  7079      1
  7080  7076  7080      1
  7081  7076  7081      1
  7082  7081  7082      1
  7083  7081  7083      1
  7084  7081  7084      1
  7085  7082  7085      1
  7086  7082  7086      1
  7087  7082  7087      1
  7088  7087  7088      1
  7089  7087  7089      1
  7090  7087  7090      1
  7091  7088  7091      1
  7092  7088  7092      1
  7093  7088  7093      1
  7094  7093  7094      1
  7095  7093  7095      1
  7096  7093  7096      1
  7097  7094  7097      1
  7098  7094  7098      1
  7099  7094  7099      1
  7100  7099  7100      1
  7101  7099  7101      1
  7102  7099  7102      1
  7103  7100  7103      1
  7104  7100  7104      1
  7105  7100  7105      1
  7106  7105  7106      1
  7107  7105  7107      1
  7108  7105  7108      1
  7109  7106  7109      1
  7110  7106  7110      1
  7111  7106  7111      1
  7112  7111  7112      1
  7113  7111  7113      1
  7114  7111  7114      1
  7115  7112  7115      1
  7116  7112  7116      1
  7117  7112  7117      1
  7118  7117  7118      1
  7119  7117  7119      1
  7120  7117  7120      1
  7121  7118  7121      1
  7122  7118  7122      1
  7123  7118  7123      1
  7124  7123  7124      1
  7125  7123  7125      1
  7126  7123  7126      1
  7127  7124  7127      1
  7128  7124  7128      1
  7129  7124  7129      1
  7130  7129  7130      1
  7131  7129  7131      1
  7132  7129  7132      1
  7133  7130  7133      1
  7134  7130  7134      1
  7135  7130  7135      1
  7136  7135  7136      1
  7137  7135  7137      1
  7138  7135  7138      1
  7139  7136  7139      1
  7140  7136  7140      1
  7141  7136  7141      1
  7142  7141  7142      1
  7143  7141  7143      1
  7144  7141  7144      1
  7145  7142  7145      1
  7146  7142  7146      1
  7147  7142  7147      1
  7148  7147  7148      1
  7149  7147  7149      1
  7150  7147  7150      1
  7151  7148  7151      1
  7152  7148  7152      1
  7153  7148  7153      1
  7154  7153  7154      1
  7155  7153  7155      1
  7156  7153  7156      1
  7157  7154  7157      1
  7158  7154  7158      1
  7159  7154  7159      1
  7160  7159  7160      1
  7161  7159  7161      1
  7162  7159  7162      1
  7163  7160  7163      1
  7164  7160  7164      1
  7165  7160  7165      1
  7166  7165  7166      1
  7167  7165  7167      1
  7168  7165  7168      1
  7169  7166  7169      1
  7170  7166  7170      1
  7171  7166  7171      1
  7172  7171  7172      1
  7173  7171  7173      1
  7174  7171  7174      1
  7175  7172  7175      1
  7176  7172  7176      1
  7177  7172  7177      1
  7178  7177  7178      1
  7179  7177  7179      1
  7180  7177  7180      1
  7181  7178  7181      1
  7182  7178  7182      1
  7183  7178  7183      1
  7184  7183  7184      1
  7185  7183  7185      1
  7186  7183  7186      1
  7187  7184  7187      1
  7188  7184  7188      1
  7189  7184  7189      1
  7190  7189  7190      1
  7191  7189  7191      1
  7192  7189  7192      1
  7193  7190  7193      1
  7194  7190  7194      1
  7195  7190  7195      1
  7196  7195  7196      1
  7197  7195  7197      1
  7198  7195  7198      1
  7199  7196  7199      1
  7200  7196  7200      1
  7201  7196  7201      1
  7202  7201  7202      1
  7203  7201  7203      1
  7204  7201  7204      1
  7205  7202  7205      1
  7206  7202  7206      1
  7207  7202  7207      1
  7208  7207  7208      1
  7209  7207  7209      1
  7210  7207  7210      1
  7211  7208  7211      1
  7212  7208  7212      1
  7213  7208  7213      1
  7214  7213  7214      1
  7215  7213  7215      1
  7216  7213  7216      1
  7217  7214  7217      1
  7218  7214  7218      1
  7219  7214  7219      1
  7220  7219  7220      1
  7221  7219  7221      1
  7222  7219  7222      1
  7223  7220  7223      1
  7224  7220  7224      1
  7225  7220  7225      1
  7226  7225  7226      1
  7227  7225  7227      1
  7228  7225  7228      1
  7229  7226  7229      1
  7230  7226  7230      1
  7231  7226  7231      1
  7232  7231  7232      1
  7233  7231  7233      1
  7234  7231  7234      1
  7235  7232  7235      1
  7236  7232  7236      1
  7237  7232  7237      1
  7238  7237  7238      1
  7239  7237  7239      1
  7240  7237  7240      1
  7241  7238  7241      1
  7242  7238  7242      1
  7243  7238  7243      1
  7244  7243  7244      1
  7245  7243  7245      1
  7246  7243  7246      1
  7247  7244  7247      1
  7248  7244  7248      1
  7249  7244  7249      1
  7250  7249  7250      1
  7251  7249  7251      1
  7252  7249  7252      1
  7253  7250  7253      1
  7254  7250  7254      1
  7255  7250  7255      1
  7256  7255  7256      1
  7257  7255  7257      1
  7258  7255  7258      1
  7259  7256  7259      1
  7260  7256  7260      1
  7261  7256  7261      1
  7262  7261  7262      1
  7263  7261  7263      1
  7264  7261  7264      1
  7265  7262  7265      1
  7266  7262  7266      1
  7267  7262  7267      1
  7268  7267  7268      1
  7269  7267  7269      1
  7270  7267  7270      1
  7271  7268  7271      1
  7272  7268  7272      1
  7273  7268  7273      1
  7274  7273  7274      1
  7275  7273  7275      1
  7276  7273  7276      1
  7277  7274  7277      1
  7278  7274  7278      1
  7279  7274  7279      1
  7280  7279  7280      1
  7281  7279  7281      1
  7282  7279  7282      1
  7283  7280  7283      1
  7284  7280  7284      1
  7285  7280  7285      1
  7286  7285  7286      1
  7287  7285  7287      1
  7288  7285  7288      1
  7289  7286  7289      1
  7290  7286  7290      1
  7291  7286  7291      1
  7292  7291  7292      1
  7293  7291  7293      1
  7294  7291  7294      1
  7295  7292  7295      1
  7296  7292  7296      1
  7297  7292  7297      1
  7298  7297  7298      1
  7299  7297  7299      1
  7300  7297  7300      1
  7301  7298  7301      1
  7302  7298  7302      1
  7303  7298  7303      1
  7304  7303  7304      1
  7305  7303  7305      1
  7306  7303  7306      1
  7307  7304  7307      1
  7308  7304  7308      1
  7309  7304  7309      1
  7310  7309  7310      1
  7311  7309  7311      1
  7312  7309  7312      1
  7313  7310  7313      1
  7314  7310  7314      1
  7315  7310  7315      1
  7316  7315  7316      1
  7317  7315  7317      1
  7318  7315  7318      1
  7319  7316  7319      1
  7320  7316  7320      1
  7321  7316  7321      1
  7322  7321  7322      1
  7323  7321  7323      1
  7324  7321  7324      1
  7325  7322  7325      1
  7326  7322  7326      1
  7327  7322  7327      1
  7328  7327  7328      1
  7329  7327  7329      1
  7330  7327  7330      1
  7331  7328  7331      1
  7332  7328  7332      1
  7333  7328  7333      1
  7334  7333  7334      1
  7335  7333  7335      1
  7336  7333  7336      1
  7337  7334  7337      1
  7338  7334  7338      1
  7339  7334  7339      1
  7340  7339  7340      1
  7341  7339  7341      1
  7342  7339  7342      1
  7343  7340  7343      1
  7344  7340  7344      1
  7345  7340  7345      1
  7346  7345  7346      1
  7347  7345  7347      1
  7348  7345  7348      1
  7349  7346  7349      1
  7350  7346  7350      1
  7351  7346  7351      1
  7352  7351  7352      1
  7353  7351  7353      1
  7354  7351  7354      1
  7355  7352  7355      1
  7356  7352  7356      1
  7357  7352  7357      1
  7358  7357  7358      1
  7359  7357  7359      1
  7360  7357  7360      1
  7361  7358  7361      1
  7362  7358  7362      1
  7363  7358  7363      1
  7364  7363  7364      1
  7365  7363  7365      1
  7366  7363  7366      1
  7367  7364  7367      1
  7368  7364  7368      1
  7369  7364  7369      1
  7370  7369  7370      1
  7371  7369  7371      1
  7372  7369  7372      1
  7373  7370  7373      1
  7374  7370  7374      1
  7375  7370  7375      1
  7376  7375  7376      1
  7377  7375  7377      1
  7378  7375  7378      1
  7379  7376  7379      1
  7380  7376  7380      1
  7381  7376  7381      1
  7382  7381  7382      1
  7383  7381  7383      1
  7384  7381  7384      1
  7385  7382  7385      1
  7386  7382  7386      1
  7387  7382  7387      1
  7388  7387  7388      1
  7389  7387  7389      1
  7390  7387  7390      1
  7391  7388  7391      1
  7392  7388  7392      1
  7393  7388  7393      1
  7394  7393  7394      1
  7395  7393  7395      1
  7396  7393  7396      1
  7397  7394  7397      1
  7398  7394  7398      1
  7399  7394  7399      1
  7400  7399  7400      1
  7401  7399  7401      1
  7402  7399  7402      1
  7403  7400  7403      1
  7404  7400  7404      1
  7405  7400  7405      1
  7406  7405  7406      1
  7407  7405  7407      1
  7408  7405  7408      1
  7409  7406  7409      1
  7410  7406  7410      1
  7411  7406  7411      1
  7412  7411  7412      1
  7413  7411  7413      1
  7414  7411  7414      1
  7415  7412  7415      1
  7416  7412  7416      1
  7417  7412  7417      1
  7418  7417  7418      1
  7419  7417  7419      1
  7420  7417  7420      1
  7421  7418  7421      1
  7422  7418  7422      1
  7423  7418  7423      1
  7424  7423  7424      1
  7425  7423  7425      1
  7426  7423  7426      1
  7427  7424  7427      1
  7428  7424  7428      1
  7429  7424  7429      1
  7430  7429  7430      1
  7431  7429  7431      1
  7432  7429  7432      1
  7433  7430  7433      1
  7434  7430  7434      1
  7435  7430  7435      1
  7436  7435  7436      1
  7437  7435  7437      1
  7438  7435  7438      1
  7439  7436  7439      1
  7440  7436  7440      1
  7441  7436  7441      1
  7442  7441  7442      1
  7443  7441  7443      1
  7444  7441  7444      1
  7445  7442  7445      1
  7446  7442  7446      1
  7447  7442  7447      1
  7448  7447  7448      1
  7449  7447  7449      1
  7450  7447  7450      1
  7451  7448  7451      1
  7452  7448  7452      1
  7453  7448  7453      1
  7454  7453  7454      1
  7455  7453  7455      1
  7456  7453  7456      1
  7457  7454  7457      1
  7458  7454  7458      1
  7459  7454  7459      1
  7460  7459  7460      1
  7461  7459  7461      1
  7462  7459  7462      1
  7463  7460  7463      1
  7464  7460  7464      1
  7465  7460  7465      1
  7466  7465  7466      1
  7467  7465  7467      1
  7468  7465  7468      1
  7469  7466  7469      1
  7470  7466  7470      1
  7471  7466  7471      1
  7472  7471  7472      1
  7473  7471  7473      1
  7474  7471  7474      1
  7475  7472  7475      1
  7476  7472  7476      1
  7477  7472  7477      1
  7478  7477  7478      1
  7479  7477  7479      1
  7480  7477  7480      1
  7481  7478  7481      1
  7482  7478  7482      1
  7483  7478  7483      1
  7484  7483  7484      1
  7485  7483  7485      1
  7486  7483  7486      1
  7487  7484  7487      1
  7488  7484  7488      1
  7489  7484  7489      1
  7490  7489  7490      1
  7491  7489  7491      1
  7492  7489  7492      1
  7493  7490  7493      1
  7494  7490  7494      1
  7495  7490  7495      1
  7496  7495  7496      1
  7497  7495  7497      1
  7498  7495  7498      1
  7499  7496  7499      1
  7500  7496  7500      1
  7501  7496  7501      1
  7502  7501  7502      1
  7503  7501  7503      1
  7504  7501  7504      1
  7505  7502  7505      1
  7506  7502  7506      1
  7507  7502  7507      1
  7508  7507  7508      1
  7509  7507  7509      1
  7510  7507  7510      1
  7511  7508  7511      1
  7512  7508  7512      1
  7513  7508  7513      1
  7514  7513  7514      1
  7515  7513  7515      1
  7516  7513  7516      1
  7517  7514  7517      1
  7518  7514  7518      1
  7519  7514  7519      1
  7520  7519  7520      1
  7521  7519  7521      1
  7522  7519  7522      1
  7523  7520  7523      1
  7524  7520  7524      1
  7525  7520  7525      1
  7526  7525  7526      1
  7527  7525  7527      1
  7528  7525  7528      1
  7529  7526  7529      1
  7530  7526  7530      1
  7531  7526  7531      1
  7532  7531  7532      1
  7533  7531  7533      1
  7534  7531  7534      1
  7535  7532  7535      1
  7536  7532  7536      1
  7537  7532  7537      1
  7538  7537  7538      1
  7539  7537  7539      1
  7540  7537  7540      1
  7541  7538  7541      1
  7542  7538  7542      1
  7543  7538  7543      1
  7544  7543  7544      1
  7545  7543  7545      1
  7546  7543  7546      1
  7547  7544  7547      1
  7548  7544  7548      1
  7549  7544  7549      1
  7550  7549  7550      1
  7551  7549  7551      1
  7552  7549  7552      1
  7553  7550  7553      1
  7554  7550  7554      1
  7555  7550  7555      1
  7556  7555  7556      1
  7557  7555  7557      1
  7558  7555  7558      1
  7559  7556  7559      1
  7560  7556  7560      1
  7561  7556  7561      1
  7562  7561  7562      1
  7563  7561  7563      1
  7564  7561  7564      1
  7565  7562  7565      1
  7566  7562  7566      1
  7567  7562  7567      1
  7568  7567  7568      1
  7569  7567  7569      1
  7570  7567  7570      1
  7571  7568  7571      1
  7572  7568  7572      1
  7573  7568  7573      1
  7574  7573  7574      1
  7575  7573  7575      1
  7576  7573  7576      1
  7577  7574  7577      1
  7578  7574  7578      1
  7579  7574  7579      1
  7580  7579  7580      1
  7581  7579  7581      1
  7582  7579  7582      1
  7583  7580  7583      1
  7584  7580  7584      1
  7585  7580  7585      1
  7586  7585  7586      1
  7587  7585  7587      1
  7588  7585  7588      1
  7589  7586  7589      1
  7590  7586  7590      1
  7591  7586  7591      1
  7592  7591  7592      1
  7593  7591  7593      1
  7594  7591  7594      1
  7595  7592  7595      1
  7596  7592  7596      1
  7597  7592  7597      1
  7598  7597  7598      1
  7599  7597  7599      1
  7600  7597  7600      1
  7601  7598  7601      1
  7602  7598  7602      1
  7603  7598  7603      1
  7604  7603  7604      1
  7605  7603  7605      1
  7606  7603  7606      1
  7607  7604  7607      1
  7608  7604  7608      1
  7609  7604  7609      1
  7610  7609  7610      1
  7611  7609  7611      1
  7612  7609  7612      1
  7613  7610  7613      1
  7614  7610  7614      1
  7615  7610  7615      1
  7616  7615  7616      1
  7617  7615  7617      1
  7618  7615  7618      1
  7619  7616  7619      1
  7620  7616  7620      1
  7621  7616  7621      1
  7622  7621  7622      1
  7623  7621  7623      1
  7624  7621  7624      1
  7625  7622  7625      1
  7626  7622  7626      1
  7627  7622  7627      1
  7628  7627  7628      1
  7629  7627  7629      1
  7630  7627  7630      1
  7631  7628  7631      1
  7632  7628  7632      1
  7633  7628  7633      1
  7634  7633  7634      1
  7635  7633  7635      1
  7636  7633  7636      1
  7637  7634  7637      1
  7638  7634  7638      1
  7639  7634  7639      1
  7640  7639  7640      1
  7641  7639  7641      1
  7642  7639  7642      1
  7643  7640  7643      1
  7644  7640  7644      1
  7645  7640  7645      1
  7646  7645  7646      1
  7647  7645  7647      1
  7648  7645  7648      1
  7649  7646  7649      1
  7650  7646  7650      1
  7651  7646  7651      1
  7652  7651  7652      1
  7653  7651  7653      1
  7654  7651  7654      1
  7655  7652  7655      1
  7656  7652  7656      1
  7657  7652  7657      1
  7658  7657  7658      1
  7659  7657  7659      1
  7660  7657  7660      1
  7661  7658  7661      1
  7662  7658  7662      1
  7663  7658  7663      1
  7664  7663  7664      1
  7665  7663  7665      1
  7666  7663  7666      1
  7667  7664  7667      1
  7668  7664  7668      1
  7669  7664  7669      1
  7670  7669  7670      1
  7671  7669  7671      1
  7672  7669  7672      1
  7673  7670  7673      1
  7674  7670  7674      1
  7675  7670  7675      1
  7676  7675  7676      1
  7677  7675  7677      1
  7678  7675  7678      1
  7679  7676  7679      1
  7680  7676  7680      1
  7681  7676  7681      1
  7682  7681  7682      1
  7683  7681  7683      1
  7684  7681  7684      1
  7685  7682  7685      1
  7686  7682  7686      1
  7687  7682  7687      1
  7688  7687  7688      1
  7689  7687  7689      1
  7690  7687  7690      1
  7691  7688  7691      1
  7692  7688  7692      1
  7693  7688  7693      1
  7694  7693  7694      1
  7695  7693  7695      1
  7696  7693  7696      1
  7697  7694  7697      1
  7698  7694  7698      1
  7699  7694  7699      1
  7700  7699  7700      1
  7701  7699  7701      1
  7702  7699  7702      1
  7703  7700  7703      1
  7704  7700  7704      1
  7705  7700  7705      1
  7706  7705  7706      1
  7707  7705  7707      1
  7708  7705  7708      1
  7709  7706  7709      1
  7710  7706  7710      1
  7711  7706  7711      1
  7712  7711  7712      1
  7713  7711  7713      1
  7714  7711  7714      1
  7715  7712  7715      1
  7716  7712  7716      1
  7717  7712  7717      1
  7718  7717  7718      1
  7719  7717  7719      1
  7720  7717  7720      1
  7721  7718  7721      1
  7722  7718  7722      1
  7723  7718  7723      1
  7724  7723  7724      1
  7725  7723  7725      1
  7726  7723  7726      1
  7727  7724  7727      1
  7728  7724  7728      1
  7729  7724  7729      1
  7730  7729  7730      1
  7731  7729  7731      1
  7732  7729  7732      1
  7733  7730  7733      1
  7734  7730  7734      1
  7735  7730  7735      1
  7736  7735  7736      1
  7737  7735  7737      1
  7738  7735  7738      1
  7739  7736  7739      1
  7740  7736  7740      1
  7741  7736  7741      1
  7742  7741  7742      1
  7743  7741  7743      1
  7744  7741  7744      1
  7745  7742  7745      1
  7746  7742  7746      1
  7747  7742  7747      1
  7748  7747  7748      1
  7749  7747  7749      1
  7750  7747  7750      1
  7751  7748  7751      1
  7752  7748  7752      1
  7753  7748  7753      1
  7754  7753  7754      1
  7755  7753  7755      1
  7756  7753  7756      1
  7757  7754  7757      1
  7758  7754  7758      1
  7759  7754  7759      1
  7760  7759  7760      1
  7761  7759  7761      1
  7762  7759  7762      1
  7763  7760  7763      1
  7764  7760  7764      1
  7765  7760  7765      1
  7766  7765  7766      1
  7767  7765  7767      1
  7768  7765  7768      1
  7769  7766  7769      1
  7770  7766  7770      1
  7771  7766  7771      1
  7772  7771  7772      1
  7773  7771  7773      1
  7774  7771  7774      1
  7775  7772  7775      1
  7776  7772  7776      1
  7777  7772  7777      1
  7778  7777  7778      1
  7779  7777  7779      1
  7780  7777  7780      1
  7781  7778  7781      1
  7782  7778  7782      1
  7783  7778  7783      1
  7784  7783  7784      1
  7785  7783  7785      1
  7786  7783  7786      1
  7787  7784  7787      1
  7788  7784  7788      1
  7789  7784  7789      1
  7790  7789  7790      1
  7791  7789  7791      1
  7792  7789  7792      1
  7793  7790  7793      1
  7794  7790  7794      1
  7795  7790  7795      1
  7796  7795  7796      1
  7797  7795  7797      1
  7798  7795  7798      1
  7799  7796  7799      1
  7800  7796  7800      1
  7801  7796  7801      1
  7802  7801  7802      1
  7803  7801  7803      1
  7804  7801  7804      1
  7805  7802  7805      1
  7806  7802  7806      1
  7807  7802  7807      1
  7808  7807  7808      1
  7809  7807  7809      1
  7810  7807  7810      1
  7811  7808  7811      1
  7812  7808  7812      1
  7813  7808  7813      1
  7814  7813  7814      1
  7815  7813  7815      1
  7816  7813  7816      1
  7817  7814  7817      1
  7818  7814  7818      1
  7819  7814  7819      1
  7820  7819  7820      1
  7821  7819  7821      1
  7822  7819  7822      1
  7823  7820  7823      1
  7824  7820  7824      1
  7825  7820  7825      1
  7826  7825  7826      1
  7827  7825  7827      1
  7828  7825  7828      1
  7829  7826  7829      1
  7830  7826  7830      1
  7831  7826  7831      1
  7832  7831  7832      1
  7833  7831  7833      1
  7834  7831  7834      1
  7835  7832  7835      1
  7836  7832  7836      1
  7837  7832  7837      1
  7838  7837  7838      1
  7839  7837  7839      1
  7840  7837  7840      1
  7841  7838  7841      1
  7842  7838  7842      1
  7843  7838  7843      1
  7844  7843  7844      1
  7845  7843  7845      1
  7846  7843  7846      1
  7847  7844  7847      1
  7848  7844  7848      1
  7849  7844  7849      1
  7850  7849  7850      1
  7851  7849  7851      1
  7852  7849  7852      1
  7853  7850  7853      1
  7854  7850  7854      1
  7855  7850  7855      1
  7856  7855  7856      1
  7857  7855  7857      1
  7858  7855  7858      1
  7859  7856  7859      1
  7860  7856  7860      1
  7861  7856  7861      1
  7862  7861  7862      1
  7863  7861  7863      1
  7864  7861  7864      1
  7865  7862  7865      1
  7866  7862  7866      1
  7867  7862  7867      1
  7868  7867  7868      1
  7869  7867  7869      1
  7870  7867  7870      1
  7871  7868  7871      1
  7872  7868  7872      1
  7873  7868  7873      1
  7874  7873  7874      1
  7875  7873  7875      1
  7876  7873  7876      1
  7877  7874  7877      1
  7878  7874  7878      1
  7879  7874  7879      1
  7880  7879  7880      1
  7881  7879  7881      1
  7882  7879  7882      1
  7883  7880  7883      1
  7884  7880  7884      1
  7885  7880  7885      1
  7886  7885  7886      1
  7887  7885  7887      1
  7888  7885  7888      1
  7889  7886  7889      1
  7890  7886  7890      1
  7891  7886  7891      1
  7892  7891  7892      1
  7893  7891  7893      1
  7894  7891  7894      1
  7895  7892  7895      1
  7896  7892  7896      1
  7897  7892  7897      1
  7898  7897  7898      1
  7899  7897  7899      1
  7900  7897  7900      1
  7901  7898  7901      1
  7902  7898  7902      1
  7903  7898  7903      1
  7904  7903  7904      1
  7905  7903  7905      1
  7906  7903  7906      1
  7907  7904  7907      1
  7908  7904  7908      1
  7909  7904  7909      1
  7910  7909  7910      1
  7911  7909  7911      1
  7912  7909  7912      1
  7913  7910  7913      1
  7914  7910  7914      1
  7915  7910  7915      1
  7916  7915  7916      1
  7917  7915  7917      1
  7918  7915  7918      1
  7919  7916  7919      1
  7920  7916  7920      1
  7921  7916  7921      1
  7922  7921  7922      1
  7923  7921  7923      1
  7924  7921  7924      1
  7925  7922  7925      1
  7926  7922  7926      1
  7927  7922  7927      1
  7928  7927  7928      1
  7929  7927  7929      1
  7930  7927  7930      1
  7931  7928  7931      1
  7932  7928  7932      1
  7933  7928  7933      1
  7934  7933  7934      1
  7935  7933  7935      1
  7936  7933  7936      1
  7937  7934  7937      1
  7938  7934  7938      1
  7939  7934  7939      1
  7940  7939  7940      1
  7941  7939  7941      1
  7942  7939  7942      1
  7943  7940  7943      1
  7944  7940  7944      1
  7945  7940  7945      1
  7946  7945  7946      1
  7947  7945  7947      1
  7948  7945  7948      1
  7949  7946  7949      1
  7950  7946  7950      1
  7951  7946  7951      1
  7952  7951  7952      1
  7953  7951  7953      1
  7954  7951  7954      1
  7955  7952  7955      1
  7956  7952  7956      1
  7957  7952  7957      1
  7958  7957  7958      1
  7959  7957  7959      1
  7960  7957  7960      1
  7961  7958  7961      1
  7962  7958  7962      1
  7963  7958  7963      1
  7964  7963  7964      1
  7965  7963  7965      1
  7966  7963  7966      1
  7967  7964  7967      1
  7968  7964  7968      1
  7969  7964  7969      1
  7970  7969  7970      1
  7971  7969  7971      1
  7972  7969  7972      1
  7973  7970  7973      1
  7974  7970  7974      1
  7975  7970  7975      1
  7976  7975  7976      1
  7977  7975  7977      1
  7978  7975  7978      1
  7979  7976  7979      1
  7980  7976  7980      1
  7981  7976  7981      1
  7982  7981  7982      1
  7983  7981  7983      1
  7984  7981  7984      1
  7985  7982  7985      1
  7986  7982  7986      1
  7987  7982  7987      1
  7988  7987  7988      1
  7989  7987  7989      1
  7990  7987  7990      1
  7991  7988  7991      1
  7992  7988  7992      1
  7993  7988  7993      1
  7994  7993  7994      1
  7995  7993  7995      1
  7996  7993  7996      1
  7997  7994  7997      1
  7998  7994  7998      1
  7999  7994  7999      1
  8000  7999  8000      1
  8001  7999  8001      1
  8002  7999  8002      1
  8003  8000  8003      1
  8004  8000  8004      1
  8005  8000  8005      1
  8006  8005  8006      1
  8007  8005  8007      1
  8008  8005  8008      1
  8009  8006  8009      1
  8010  8006  8010      1
  8011  8006  8011      1
  8012  8011  8012      1
  8013  8011  8013      1
  8014  8011  8014      1
  8015  8012  8015      1
  8016  8012  8016      1
  8017  8012  8017      1
  8018  8017  8018      1
  8019  8017  8019      1
  8020  8017  8020      1
  8021  8018  8021      1
  8022  8018  8022      1
  8023  8018  8023      1
  8024  8023  8024      1
  8025  8023  8025      1
  8026  8023  8026      1
  8027  8024  8027      1
  8028  8024  8028      1
  8029  8024  8029      1
  8030  8029  8030      1
  8031  8029  8031      1
  8032  8029  8032      1
  8033  8030  8033      1
  8034  8030  8034      1
  8035  8030  8035      1
  8036  8035  8036      1
  8037  8035  8037      1
  8038  8035  8038      1
  8039  8036  8039      1
  8040  8036  8040      1
  8041  8036  8041      1
  8042  8041  8042      1
  8043  8041  8043      1
  8044  8041  8044      1
  8045  8042  8045      1
  8046  8042  8046      1
  8047  8042  8047      1
  8048  8047  8048      1
  8049  8047  8049      1
  8050  8047  8050      1
  8051  8048  8051      1
  8052  8048  8052      1
  8053  8048  8053      1
  8054  8053  8054      1
  8055  8053  8055      1
  8056  8053  8056      1
  8057  8054  8057      1
  8058  8054  8058      1
  8059  8054  8059      1
  8060  8059  8060      1
  8061  8059  8061      1
  8062  8059  8062      1
  8063  8060  8063      1
  8064  8060  8064      1
  8065  8060  8065      1
  8066  8065  8066      1
  8067  8065  8067      1
  8068  8065  8068      1
  8069  8066  8069      1
  8070  8066  8070      1
  8071  8066  8071      1
  8072  8071  8072      1
  8073  8071  8073      1
  8074  8071  8074      1
  8075  8072  8075      1
  8076  8072  8076      1
  8077  8072  8077      1
  8078  8077  8078      1
  8079  8077  8079      1
  8080  8077  8080      1
  8081  8078  8081      1
  8082  8078  8082      1
  8083  8078  8083      1
  8084  8083  8084      1
  8085  8083  8085      1
  8086  8083  8086      1
  8087  8084  8087      1
  8088  8084  8088      1
  8089  8084  8089      1
  8090  8089  8090      1
  8091  8089  8091      1
  8092  8089  8092      1
  8093  8090  8093      1
  8094  8090  8094      1
  8095  8090  8095      1
  8096  8095  8096      1
  8097  8095  8097      1
  8098  8095  8098      1
  8099  8096  8099      1
  8100  8096  8100      1
  8101  8096  8101      1
  8102  8101  8102      1
  8103  8101  8103      1
  8104  8101  8104      1
  8105  8102  8105      1
  8106  8102  8106      1
  8107  8102  8107      1
  8108  8107  8108      1
  8109  8107  8109      1
  8110  8107  8110      1
  8111  8108  8111      1
  8112  8108  8112      1
  8113  8108  8113      1
  8114  8113  8114      1
  8115  8113  8115      1
  8116  8113  8116      1
  8117  8114  8117      1
  8118  8114  8118      1
  8119  8114  8119      1
  8120  8119  8120      1
  8121  8119  8121      1
  8122  8119  8122      1
  8123  8120  8123      1
  8124  8120  8124      1
  8125  8120  8125      1
  8126  8125  8126      1
  8127  8125  8127      1
  8128  8125  8128      1
  8129  8126  8129      1
  8130  8126  8130      1
  8131  8126  8131      1
  8132  8131  8132      1
  8133  8131  8133      1
  8134  8131  8134      1
  8135  8132  8135      1
  8136  8132  8136      1
  8137  8132  8137      1
  8138  8137  8138      1
  8139  8137  8139      1
  8140  8137  8140      1
  8141  8138  8141      1
  8142  8138  8142      1
  8143  8138  8143      1
  8144  8143  8144      1
  8145  8143  8145      1
  8146  8143  8146      1
  8147  8144  8147      1
  8148  8144  8148      1
  8149  8144  8149      1
  8150  8149  8150      1
  8151  8149  8151      1
  8152  8149  8152      1
  8153  8150  8153      1
  8154  8150  8154      1
  8155  8150  8155      1
  8156  8155  8156      1
  8157  8155  8157      1
  8158  8155  8158      1
  8159  8156  8159      1
  8160  8156  8160      1
  8161  8156  8161      1
  8162  8161  8162      1
  8163  8161  8163      1
  8164  8161  8164      1
  8165  8162  8165      1
  8166  8162  8166      1
  8167  8162  8167      1
  8168  8167  8168      1
  8169  8167  8169      1
  8170  8167  8170      1
  8171  8168  8171      1
  8172  8168  8172      1
  8173  8168  8173      1
  8174  8173  8174      1
  8175  8173  8175      1
  8176  8173  8176      1
  8177  8174  8177      1
  8178  8174  8178      1
  8179  8174  8179      1
  8180  8179  8180      1
  8181  8179  8181      1
  8182  8179  8182      1
  8183  8180  8183      1
  8184  8180  8184      1
  8185  8180  8185      1
  8186  8185  8186      1
  8187  8185  8187      1
  8188  8185  8188      1
  8189  8186  8189      1
  8190  8186  8190      1
  8191  8186  8191      1
  8192  8191  8192      1
  8193  8191  8193      1
  8194  8191  8194      1
  8195  8192  8195      1
  8196  8192  8196      1
  8197  8192  8197      1
  8198  8197  8198      1
  8199  8197  8199      1
  8200  8197  8200      1
  8201  8198  8201      1
  8202  8198  8202      1
  8203  8198  8203      1
  8204  8203  8204      1
  8205  8203  8205      1
  8206  8203  8206      1
  8207  8204  8207      1
  8208  8204  8208      1
  8209  8204  8209      1
  8210  8209  8210      1
  8211  8209  8211      1
  8212  8209  8212      1
  8213  8210  8213      1
  8214  8210  8214      1
  8215  8210  8215      1
  8216  8215  8216      1
  8217  8215  8217      1
  8218  8215  8218      1
  8219  8216  8219      1
  8220  8216  8220      1
  8221  8216  8221      1
  8222  8221  8222      1
  8223  8221  8223      1
  8224  8221  8224      1
  8225  8222  8225      1
  8226  8222  8226      1
  8227  8222  8227      1
  8228  8227  8228      1
  8229  8227  8229      1
  8230  8227  8230      1
  8231  8228  8231      1
  8232  8228  8232      1
  8233  8228  8233      1
  8234  8233  8234      1
  8235  8233  8235      1
  8236  8233  8236      1
  8237  8234  8237      1
  8238  8234  8238      1
  8239  8234  8239      1
  8240  8239  8240      1
  8241  8239  8241      1
  8242  8239  8242      1
  8243  8240  8243      1
  8244  8240  8244      1
  8245  8240  8245      1
  8246  8245  8246      1
  8247  8245  8247      1
  8248  8245  8248      1
  8249  8246  8249      1
  8250  8246  8250      1
  8251  8246  8251      1
  8252  8251  8252      1
  8253  8251  8253      1
  8254  8251  8254      1
  8255  8252  8255      1
  8256  8252  8256      1
  8257  8252  8257      1
  8258  8257  8258      1
  8259  8257  8259      1
  8260  8257  8260      1
  8261  8258  8261      1
  8262  8258  8262      1
  8263  8258  8263      1
  8264  8263  8264      1
  8265  8263  8265      1
  8266  8263  8266      1
  8267  8264  8267      1
  8268  8264  8268      1
  8269  8264  8269      1
  8270  8269  8270      1
  8271  8269  8271      1
  8272  8269  8272      1
  8273  8270  8273      1
  8274  8270  8274      1
  8275  8270  8275      1
  8276  8275  8276      1
  8277  8275  8277      1
  8278  8275  8278      1
  8279  8276  8279      1
  8280  8276  8280      1
  8281  8276  8281      1
  8282  8281  8282      1
  8283  8281  8283      1
  8284  8281  8284      1
  8285  8282  8285      1
  8286  8282  8286      1
  8287  8282  8287      1
  8288  8287  8288      1
  8289  8287  8289      1
  8290  8287  8290      1
  8291  8288  8291      1
  8292  8288  8292      1
  8293  8288  8293      1
  8294  8293  8294      1
  8295  8293  8295      1
  8296  8293  8296      1
  8297  8294  8297      1
  8298  8294  8298      1
  8299  8294  8299      1
  8300  8299  8300      1
  8301  8299  8301      1
  8302  8299  8302      1
  8303  8300  8303      1
  8304  8300  8304      1
  8305  8300  8305      1
  8306  8305  8306      1
  8307  8305  8307      1
  8308  8305  8308      1
  8309  8306  8309      1
  8310  8306  8310      1
  8311  8306  8311      1
  8312  8311  8312      1
  8313  8311  8313      1
  8314  8311  8314      1
  8315  8312  8315      1
  8316  8312  8316      1
  8317  8312  8317      1
  8318  8317  8318      1
  8319  8317  8319      1
  8320  8317  8320      1
  8321  8318  8321      1
  8322  8318  8322      1
  8323  8318  8323      1
  8324  8323  8324      1
  8325  8323  8325      1
  8326  8323  8326      1
  8327  8324  8327      1
  8328  8324  8328      1
  8329  8324  8329      1
  8330  8329  8330      1
  8331  8329  8331      1
  8332  8329  8332      1
  8333  8330  8333      1
  8334  8330  8334      1
  8335  8330  8335      1
  8336  8335  8336      1
  8337  8335  8337      1
  8338  8335  8338      1
  8339  8336  8339      1
  8340  8336  8340      1
  8341  8336  8341      1
  8342  8341  8342      1
  8343  8341  8343      1
  8344  8341  8344      1
  8345  8342  8345      1
  8346  8342  8346      1
  8347  8342  8347      1
  8348  8347  8348      1
  8349  8347  8349      1
  8350  8347  8350      1
  8351  8348  8351      1
  8352  8348  8352      1
  8353  8348  8353      1
  8354  8353  8354      1
  8355  8353  8355      1
  8356  8353  8356      1
  8357  8354  8357      1
  8358  8354  8358      1
  8359  8354  8359      1
  8360  8359  8360      1
  8361  8359  8361      1
  8362  8359  8362      1
  8363  8360  8363      1
  8364  8360  8364      1
  8365  8360  8365      1
  8366  8365  8366      1
  8367  8365  8367      1
  8368  8365  8368      1
  8369  8366  8369      1
  8370  8366  8370      1
  8371  8366  8371      1
  8372  8371  8372      1
  8373  8371  8373      1
  8374  8371  8374      1
  8375  8372  8375      1
  8376  8372  8376      1
  8377  8372  8377      1
  8378  8377  8378      1
  8379  8377  8379      1
  8380  8377  8380      1
  8381  8378  8381      1
  8382  8378  8382      1
  8383  8378  8383      1
  8384  8383  8384      1
  8385  8383  8385      1
  8386  8383  8386      1
  8387  8384  8387      1
  8388  8384  8388      1
  8389  8384  8389      1
  8390  8389  8390      1
  8391  8389  8391      1
  8392  8389  8392      1
  8393  8390  8393      1
  8394  8390  8394      1
  8395  8390  8395      1
  8396  8395  8396      1
  8397  8395  8397      1
  8398  8395  8398      1
  8399  8396  8399      1
  8400  8396  8400      1
  8401  8396  8401      1
  8402  8401  8402      1
  8403  8401  8403      1
  8404  8401  8404      1
  8405  8402  8405      1
  8406  8402  8406      1
  8407  8402  8407      1
  8408  8407  8408      1
  8409  8407  8409      1
  8410  8407  8410      1
  8411  8408  8411      1
  8412  8408  8412      1
  8413  8408  8413      1
  8414  8413  8414      1
  8415  8413  8415      1
  8416  8413  8416      1
  8417  8414  8417      1
  8418  8414  8418      1
  8419  8414  8419      1
  8420  8419  8420      1
  8421  8419  8421      1
  8422  8419  8422      1
  8423  8420  8423      1
  8424  8420  8424      1
  8425  8420  8425      1
  8426  8425  8426      1
  8427  8425  8427      1
  8428  8425  8428      1
  8429  8426  8429      1
  8430  8426  8430      1
  8431  8426  8431      1
  8432  8431  8432      1
  8433  8431  8433      1
  8434  8431  8434      1
  8435  8432  8435      1
  8436  8432  8436      1
  8437  8432  8437      1
  8438  8437  8438      1
  8439  8437  8439      1
  8440  8437  8440      1
  8441  8438  8441      1
  8442  8438  8442      1
  8443  8438  8443      1
  8444  8443  8444      1
  8445  8443  8445      1
  8446  8443  8446      1
  8447  8444  8447      1
  8448  8444  8448      1
  8449  8444  8449      1
  8450  8449  8450      1
  8451  8449  8451      1
  8452  8449  8452      1
  8453  8450  8453      1
  8454  8450  8454      1
  8455  8450  8455      1
  8456  8455  8456      1
  8457  8455  8457      1
  8458  8455  8458      1
  8459  8456  8459      1
  8460  8456  8460      1
  8461  8456  8461      1
  8462  8461  8462      1
  8463  8461  8463      1
  8464  8461  8464      1
  8465  8462  8465      1
  8466  8462  8466      1
  8467  8462  8467      1
  8468  8467  8468      1
  8469  8467  8469      1
  8470  8467  8470      1
  8471  8468  8471      1
  8472  8468  8472      1
  8473  8468  8473      1
  8474  8473  8474      1
  8475  8473  8475      1
  8476  8473  8476      1
  8477  8474  8477      1
  8478  8474  8478      1
  8479  8474  8479      1
  8480  8479  8480      1
  8481  8479  8481      1
  8482  8479  8482      1
  8483  8480  8483      1
  8484  8480  8484      1
  8485  8480  8485      1
  8486  8485  8486      1
  8487  8485  8487      1
  8488  8485  8488      1
  8489  8486  8489      1
  8490  8486  8490      1
  8491  8486  8491      1
  8492  8491  8492      1
  8493  8491  8493      1
  8494  8491  8494      1
  8495  8492  8495      1
  8496  8492  8496      1
  8497  8492  8497      1
  8498  8497  8498      1
  8499  8497  8499      1
  8500  8497  8500      1
  8501  8498  8501      1
  8502  8498  8502      1
  8503  8498  8503      1
  8504  8503  8504      1
  8505  8503  8505      1
  8506  8503  8506      1
  8507  8504  8507      1
  8508  8504  8508      1
  8509  8504  8509      1
  8510  8509  8510      1
  8511  8509  8511      1
  8512  8509  8512      1
  8513  8510  8513      1
  8514  8510  8514      1
  8515  8510  8515      1
  8516  8515  8516      1
  8517  8515  8517      1
  8518  8515  8518      1
  8519  8516  8519      1
  8520  8516  8520      1
  8521  8516  8521      1
  8522  8521  8522      1
  8523  8521  8523      1
  8524  8521  8524      1
  8525  8522  8525      1
  8526  8522  8526      1
  8527  8522  8527      1
  8528  8527  8528      1
  8529  8527  8529      1
  8530  8527  8530      1
  8531  8528  8531      1
  8532  8528  8532      1
  8533  8528  8533      1
  8534  8533  8534      1
  8535  8533  8535      1
  8536  8533  8536      1
  8537  8534  8537      1
  8538  8534  8538      1
  8539  8534  8539      1
  8540  8539  8540      1
  8541  8539  8541      1
  8542  8539  8542      1
  8543  8540  8543      1
  8544  8540  8544      1
  8545  8540  8545      1
  8546  8545  8546      1
  8547  8545  8547      1
  8548  8545  8548      1
  8549  8546  8549      1
  8550  8546  8550      1
  8551  8546  8551      1
  8552  8551  8552      1
  8553  8551  8553      1
  8554  8551  8554      1
  8555  8552  8555      1
  8556  8552  8556      1
  8557  8552  8557      1
  8558  8557  8558      1
  8559  8557  8559      1
  8560  8557  8560      1
  8561  8558  8561      1
  8562  8558  8562      1
  8563  8558  8563      1
  8564  8563  8564      1
  8565  8563  8565      1
  8566  8563  8566      1
  8567  8564  8567      1
  8568  8564  8568      1
  8569  8564  8569      1
  8570  8569  8570      1
  8571  8569  8571      1
  8572  8569  8572      1
  8573  8570  8573      1
  8574  8570  8574      1
  8575  8570  8575      1
  8576  8575  8576      1
  8577  8575  8577      1
  8578  8575  8578      1
  8579  8576  8579      1
  8580  8576  8580      1
  8581  8576  8581      1
  8582  8581  8582      1
  8583  8581  8583      1
  8584  8581  8584      1
  8585  8582  8585      1
  8586  8582  8586      1
  8587  8582  8587      1
  8588  8587  8588      1
  8589  8587  8589      1
  8590  8587  8590      1
  8591  8588  8591      1
  8592  8588  8592      1
  8593  8588  8593      1
  8594  8593  8594      1
  8595  8593  8595      1
  8596  8593  8596      1
  8597  8594  8597      1
  8598  8594  8598      1
  8599  8594  8599      1
  8600  8599  8600      1
  8601  8599  8601      1
  8602  8599  8602      1
  8603  8600  8603      1
  8604  8600  8604      1
  8605  8600  8605      1
  8606  8605  8606      1
  8607  8605  8607      1
  8608  8605  8608      1
  8609  8606  8609      1
  8610  8606  8610      1
  8611  8606  8611      1
  8612  8611  8612      1
  8613  8611  8613      1
  8614  8611  8614      1
  8615  8612  8615      1
  8616  8612  8616      1
  8617  8612  8617      1
  8618  8617  8618      1
  8619  8617  8619      1
  8620  8617  8620      1
  8621  8618  8621      1
  8622  8618  8622      1
  8623  8618  8623      1
  8624  8623  8624      1
  8625  8623  8625      1
  8626  8623  8626      1
  8627  8624  8627      1
  8628  8624  8628      1
  8629  8624  8629      1
  8630  8629  8630      1
  8631  8629  8631      1
  8632  8629  8632      1
  8633  8630  8633      1
  8634  8630  8634      1
  8635  8630  8635      1
  8636  8635  8636      1
  8637  8635  8637      1
  8638  8635  8638      1
  8639  8636  8639      1
  8640  8636  8640      1
  8641  8636  8641      1
  8642  8641  8642      1
  8643  8641  8643      1
  8644  8641  8644      1
  8645  8642  8645      1
  8646  8642  8646      1
  8647  8642  8647      1
  8648  8647  8648      1
  8649  8647  8649      1
  8650  8647  8650      1
  8651  8648  8651      1
  8652  8648  8652      1
  8653  8648  8653      1
  8654  8653  8654      1
  8655  8653  8655      1
  8656  8653  8656      1
  8657  8654  8657      1
  8658  8654  8658      1
  8659  8654  8659      1
  8660  8659  8660      1
  8661  8659  8661      1
  8662  8659  8662      1
  8663  8660  8663      1
  8664  8660  8664      1
  8665  8660  8665      1
  8666  8665  8666      1
  8667  8665  8667      1
  8668  8665  8668      1
  8669  8666  8669      1
  8670  8666  8670      1
  8671  8666  8671      1
  8672  8671  8672      1
  8673  8671  8673      1
  8674  8671  8674      1
  8675  8672  8675      1
  8676  8672  8676      1
  8677  8672  8677      1
  8678  8677  8678      1
  8679  8677  8679      1
  8680  8677  8680      1
  8681  8678  8681      1
  8682  8678  8682      1
  8683  8678  8683      1
  8684  8683  8684      1
  8685  8683  8685      1
  8686  8683  8686      1
  8687  8684  8687      1
  8688  8684  8688      1
  8689  8684  8689      1
  8690  8689  8690      1
  8691  8689  8691      1
  8692  8689  8692      1
  8693  8690  8693      1
  8694  8690  8694      1
  8695  8690  8695      1
  8696  8695  8696      1
  8697  8695  8697      1
  8698  8695  8698      1
  8699  8696  8699      1
  8700  8696  8700      1
  8701  8696  8701      1
  8702  8701  8702      1
  8703  8701  8703      1
  8704  8701  8704      1
  8705  8702  8705      1
  8706  8702  8706      1
  8707  8702  8707      1
  8708  8707  8708      1
  8709  8707  8709      1
  8710  8707  8710      1
  8711  8708  8711      1
  8712  8708  8712      1
  8713  8708  8713      1
  8714  8713  8714      1
  8715  8713  8715      1
  8716  8713  8716      1
  8717  8714  8717      1
  8718  8714  8718      1
  8719  8714  8719      1
  8720  8719  8720      1
  8721  8719  8721      1
  8722  8719  8722      1
  8723  8720  8723      1
  8724  8720  8724      1
  8725  8720  8725      1
  8726  8725  8726      1
  8727  8725  8727      1
  8728  8725  8728      1
  8729  8726  8729      1
  8730  8726  8730      1
  8731  8726  8731      1
  8732  8731  8732      1
  8733  8731  8733      1
  8734  8731  8734      1
  8735  8732  8735      1
  8736  8732  8736      1
  8737  8732  8737      1
  8738  8737  8738      1
  8739  8737  8739      1
  8740  8737  8740      1
  8741  8738  8741      1
  8742  8738  8742      1
  8743  8738  8743      1
  8744  8743  8744      1
  8745  8743  8745      1
  8746  8743  8746      1
  8747  8744  8747      1
  8748  8744  8748      1
  8749  8744  8749      1
  8750  8749  8750      1
  8751  8749  8751      1
  8752  8749  8752      1
  8753  8750  8753      1
  8754  8750  8754      1
  8755  8750  8755      1
  8756  8755  8756      1
  8757  8755  8757      1
  8758  8755  8758      1
  8759  8756  8759      1
  8760  8756  8760      1
  8761  8756  8761      1
  8762  8761  8762      1
  8763  8761  8763      1
  8764  8761  8764      1
  8765  8762  8765      1
  8766  8762  8766      1
  8767  8762  8767      1
  8768  8767  8768      1
  8769  8767  8769      1
  8770  8767  8770      1
  8771  8768  8771      1
  8772  8768  8772      1
  8773  8768  8773      1
  8774  8773  8774      1
  8775  8773  8775      1
  8776  8773  8776      1
  8777  8774  8777      1
  8778  8774  8778      1
  8779  8774  8779      1
  8780  8779  8780      1
  8781  8779  8781      1
  8782  8779  8782      1
  8783  8780  8783      1
  8784  8780  8784      1
  8785  8780  8785      1
  8786  8785  8786      1
  8787  8785  8787      1
  8788  8785  8788      1
  8789  8786  8789      1
  8790  8786  8790      1
  8791  8786  8791      1
  8792  8791  8792      1
  8793  8791  8793      1
  8794  8791  8794      1
  8795  8792  8795      1
  8796  8792  8796      1
  8797  8792  8797      1
  8798  8797  8798      1
  8799  8797  8799      1
  8800  8797  8800      1
  8801  8798  8801      1
  8802  8798  8802      1
  8803  8798  8803      1
  8804  8803  8804      1
  8805  8803  8805      1
  8806  8803  8806      1
  8807  8804  8807      1
  8808  8804  8808      1
  8809  8804  8809      1
  8810  8809  8810      1
  8811  8809  8811      1
  8812  8809  8812      1
  8813  8810  8813      1
  8814  8810  8814      1
  8815  8810  8815      1
  8816  8815  8816      1
  8817  8815  8817      1
  8818  8815  8818      1
  8819  8816  8819      1
  8820  8816  8820      1
  8821  8816  8821      1
  8822  8821  8822      1
  8823  8821  8823      1
  8824  8821  8824      1
  8825  8822  8825      1
  8826  8822  8826      1
  8827  8822  8827      1
  8828  8827  8828      1
  8829  8827  8829      1
  8830  8827  8830      1
  8831  8828  8831      1
  8832  8828  8832      1
  8833  8828  8833      1
  8834  8833  8834      1
  8835  8833  8835      1
  8836  8833  8836      1
  8837  8834  8837      1
  8838  8834  8838      1
  8839  8834  8839      1
  8840  8839  8840      1
  8841  8839  8841      1
  8842  8839  8842      1
  8843  8840  8843      1
  8844  8840  8844      1
  8845  8840  8845      1
  8846  8845  8846      1
  8847  8845  8847      1
  8848  8845  8848      1
  8849  8846  8849      1
  8850  8846  8850      1
  8851  8846  8851      1
  8852  8851  8852      1
  8853  8851  8853      1
  8854  8851  8854      1
  8855  8852  8855      1
  8856  8852  8856      1
  8857  8852  8857      1
  8858  8857  8858      1
  8859  8857  8859      1
  8860  8857  8860      1
  8861  8858  8861      1
  8862  8858  8862      1
  8863  8858  8863      1
  8864  8863  8864      1
  8865  8863  8865      1
  8866  8863  8866      1
  8867  8864  8867      1
  8868  8864  8868      1
  8869  8864  8869      1
  8870  8869  8870      1
  8871  8869  8871      1
  8872  8869  8872      1
  8873  8870  8873      1
  8874  8870  8874      1
  8875  8870  8875      1
  8876  8875  8876      1
  8877  8875  8877      1
  8878  8875  8878      1
  8879  8876  8879      1
  8880  8876  8880      1
  8881  8876  8881      1
  8882  8881  8882      1
  8883  8881  8883      1
  8884  8881  8884      1
  8885  8882  8885      1
  8886  8882  8886      1
  8887  8882  8887      1
  8888  8887  8888      1
  8889  8887  8889      1
  8890  8887  8890      1
  8891  8888  8891      1
  8892  8888  8892      1
  8893  8888  8893      1
  8894  8893  8894      1
  8895  8893  8895      1
  8896  8893  8896      1
  8897  8894  8897      1
  8898  8894  8898      1
  8899  8894  8899      1
  8900  8899  8900      1
  8901  8899  8901      1
  8902  8899  8902      1
  8903  8900  8903      1
  8904  8900  8904      1
  8905  8900  8905      1
  8906  8905  8906      1
  8907  8905  8907      1
  8908  8905  8908      1
  8909  8906  8909      1
  8910  8906  8910      1
  8911  8906  8911      1
  8912  8911  8912      1
  8913  8911  8913      1
  8914  8911  8914      1
  8915  8912  8915      1
  8916  8912  8916      1
  8917  8912  8917      1
  8918  8917  8918      1
  8919  8917  8919      1
  8920  8917  8920      1
  8921  8918  8921      1
  8922  8918  8922      1
  8923  8918  8923      1
  8924  8923  8924      1
  8925  8923  8925      1
  8926  8923  8926      1
  8927  8924  8927      1
  8928  8924  8928      1
  8929  8924  8929      1
  8930  8929  8930      1
  8931  8929  8931      1
  8932  8929  8932      1
  8933  8930  8933      1
  8934  8930  8934      1
  8935  8930  8935      1
  8936  8935  8936      1
  8937  8935  8937      1
  8938  8935  8938      1
  8939  8936  8939      1
  8940  8936  8940      1
  8941  8936  8941      1
  8942  8941  8942      1
  8943  8941  8943      1
  8944  8941  8944      1
  8945  8942  8945      1
  8946  8942  8946      1
  8947  8942  8947      1
  8948  8947  8948      1
  8949  8947  8949      1
  8950  8947  8950      1
  8951  8948  8951      1
  8952  8948  8952      1
  8953  8948  8953      1
  8954  8953  8954      1
  8955  8953  8955      1
  8956  8953  8956      1
  8957  8954  8957      1
  8958  8954  8958      1
  8959  8954  8959      1
  8960  8959  8960      1
  8961  8959  8961      1
  8962  8959  8962      1
  8963  8960  8963      1
  8964  8960  8964      1
  8965  8960  8965      1
  8966  8965  8966      1
  8967  8965  8967      1
  8968  8965  8968      1
  8969  8966  8969      1
  8970  8966  8970      1
  8971  8966  8971      1
  8972  8971  8972      1
  8973  8971  8973      1
  8974  8971  8974      1
  8975  8972  8975      1
  8976  8972  8976      1
  8977  8972  8977      1
  8978  8977  8978      1
  8979  8977  8979      1
  8980  8977  8980      1
  8981  8978  8981      1
  8982  8978  8982      1
  8983  8978  8983      1
  8984  8983  8984      1
  8985  8983  8985      1
  8986  8983  8986      1
  8987  8984  8987      1
  8988  8984  8988      1
  8989  8984  8989      1
  8990  8989  8990      1
  8991  8989  8991      1
  8992  8989  8992      1
  8993  8990  8993      1
  8994  8990  8994      1
  8995  8990  8995      1
  8996  8995  8996      1
  8997  8995  8997      1
  8998  8995  8998      1
  8999  8996  8999      1
  9000  8996  9000      1
  9001  8996  9001      1
  9002  9001  9002      1
  9003  9001  9003      1
  9004  9001  9004      1
  9005  9002  9005      1
  9006  9002  9006      1
  9007  9002  9007      1
  9008  9007  9008      1
  9009  9007  9009      1
  9010  9007  9010      1
  9011  9008  9011      1
  9012  9008  9012      1
  9013  9008  9013      1
  9014  9013  9014      1
  9015  9013  9015      1
  9016  9013  9016      1
  9017  9014  9017      1
  9018  9014  9018      1
  9019  9014  9019      1
  9020  9019  9020      1
  9021  9019  9021      1
  9022  9019  9022      1
  9023  9020  9023      1
  9024  9020  9024      1
  9025  9020  9025      1
  9026  9025  9026      1
  9027  9025  9027      1
  9028  9025  9028      1
  9029  9026  9029      1
  9030  9026  9030      1
  9031  9026  9031      1
  9032  9031  9032      1
  9033  9031  9033      1
  9034  9031  9034      1
  9035  9032  9035      1
  9036  9032  9036      1
  9037  9032  9037      1
  9038  9037  9038      1
  9039  9037  9039      1
  9040  9037  9040      1
  9041  9038  9041      1
  9042  9038  9042      1
  9043  9038  9043      1
  9044  9043  9044      1
  9045  9043  9045      1
  9046  9043  9046      1
  9047  9044  9047      1
  9048  9044  9048      1
  9049  9044  9049      1
  9050  9049  9050      1
  9051  9049  9051      1
  9052  9049  9052      1
  9053  9050  9053      1
  9054  9050  9054      1
  9055  9050  9055      1
  9056  9055  9056      1
  9057  9055  9057      1
  9058  9055  9058      1
  9059  9056  9059      1
  9060  9056  9060      1
  9061  9056  9061      1
  9062  9061  9062      1
  9063  9061  9063      1
  9064  9061  9064      1
  9065  9062  9065      1
  9066  9062  9066      1
  9067  9062  9067      1
  9068  9067  9068      1
  9069  9067  9069      1
  9070  9067  9070      1
  9071  9068  9071      1
  9072  9068  9072      1
  9073  9068  9073      1
  9074  9073  9074      1
  9075  9073  9075      1
  9076  9073  9076      1
  9077  9074  9077      1
  9078  9074  9078      1
  9079  9074  9079      1
  9080  9079  9080      1
  9081  9079  9081      1
  9082  9079  9082      1
  9083  9080  9083      1
  9084  9080  9084      1
  9085  9080  9085      1
  9086  9085  9086      1
  9087  9085  9087      1
  9088  9085  9088      1
  9089  9086  9089      1
  9090  9086  9090      1
  9091  9086  9091      1
  9092  9091  9092      1
  9093  9091  9093      1
  9094  9091  9094      1
  9095  9092  9095      1
  9096  9092  9096      1
  9097  9092  9097      1
  9098  9097  9098      1
  9099  9097  9099      1
  9100  9097  9100      1
  9101  9098  9101      1
  9102  9098  9102      1
  9103  9098  9103      1
  9104  9103  9104      1
  9105  9103  9105      1
  9106  9103  9106      1
  9107  9104  9107      1
  9108  9104  9108      1
  9109  9104  9109      1
  9110  9109  9110      1
  9111  9109  9111      1
  9112  9109  9112      1
  9113  9110  9113      1
  9114  9110  9114      1
  9115  9110  9115      1
  9116  9115  9116      1
  9117  9115  9117      1
  9118  9115  9118      1
  9119  9116  9119      1
  9120  9116  9120      1
  9121  9116  9121      1
  9122  9121  9122      1
  9123  9121  9123      1
  9124  9121  9124      1
  9125  9122  9125      1
  9126  9122  9126      1
  9127  9122  9127      1
  9128  9127  9128      1
  9129  9127  9129      1
  9130  9127  9130      1
  9131  9128  9131      1
  9132  9128  9132      1
  9133  9128  9133      1
  9134  9133  9134      1
  9135  9133  9135      1
  9136  9133  9136      1
  9137  9134  9137      1
  9138  9134  9138      1
  9139  9134  9139      1
  9140  9139  9140      1
  9141  9139  9141      1
  9142  9139  9142      1
  9143  9140  9143      1
  9144  9140  9144      1
  9145  9140  9145      1
  9146  9145  9146      1
  9147  9145  9147      1
  9148  9145  9148      1
  9149  9146  9149      1
  9150  9146  9150      1
  9151  9146  9151      1
  9152  9151  9152      1
  9153  9151  9153      1
  9154  9151  9154      1
  9155  9152  9155      1
  9156  9152  9156      1
  9157  9152  9157      1
  9158  9157  9158      1
  9159  9157  9159      1
  9160  9157  9160      1
  9161  9158  9161      1
  9162  9158  9162      1
  9163  9158  9163      1
  9164  9163  9164      1
  9165  9163  9165      1
  9166  9163  9166      1
  9167  9164  9167      1
  9168  9164  9168      1
  9169  9164  9169      1
  9170  9169  9170      1
  9171  9169  9171      1
  9172  9169  9172      1
  9173  9170  9173      1
  9174  9170  9174      1
  9175  9170  9175      1
  9176  9175  9176      1
  9177  9175  9177      1
  9178  9175  9178      1
  9179  9176  9179      1
  9180  9176  9180      1
  9181  9176  9181      1
  9182  9181  9182      1
  9183  9181  9183      1
  9184  9181  9184      1
  9185  9182  9185      1
  9186  9182  9186      1
  9187  9182  9187      1
  9188  9187  9188      1
  9189  9187  9189      1
  9190  9187  9190      1
  9191  9188  9191      1
  9192  9188  9192      1
  9193  9188  9193      1
  9194  9193  9194      1
  9195  9193  9195      1
  9196  9193  9196      1
  9197  9194  9197      1
  9198  9194  9198      1
  9199  9194  9199      1
  9200  9199  9200      1
  9201  9199  9201      1
  9202  9199  9202      1
  9203  9200  9203      1
  9204  9200  9204      1
  9205  9200  9205      1
  9206  9205  9206      1
  9207  9205  9207      1
  9208  9205  9208      1
  9209  9206  9209      1
  9210  9206  9210      1
  9211  9206  9211      1
  9212  9211  9212      1
  9213  9211  9213      1
  9214  9211  9214      1
  9215  9212  9215      1
  9216  9212  9216      1
  9217  9212  9217      1
  9218  9217  9218      1
  9219  9217  9219      1
  9220  9217  9220      1
  9221  9218  9221      1
  9222  9218  9222      1
  9223  9218  9223      1
  9224  9223  9224      1
  9225  9223  9225      1
  9226  9223  9226      1
  9227  9224  9227      1
  9228  9224  9228      1
  9229  9224  9229      1
  9230  9229  9230      1
  9231  9229  9231      1
  9232  9229  9232      1
  9233  9230  9233      1
  9234  9230  9234      1
  9235  9230  9235      1
  9236  9235  9236      1
  9237  9235  9237      1
  9238  9235  9238      1
  9239  9236  9239      1
  9240  9236  9240      1
  9241  9236  9241      1
  9242  9241  9242      1
  9243  9241  9243      1
  9244  9241  9244      1
  9245  9242  9245      1
  9246  9242  9246      1
  9247  9242  9247      1
  9248  9247  9248      1
  9249  9247  9249      1
  9250  9247  9250      1
  9251  9248  9251      1
  9252  9248  9252      1
  9253  9248  9253      1
  9254  9253  9254      1
  9255  9253  9255      1
  9256  9253  9256      1
  9257  9254  9257      1
  9258  9254  9258      1
  9259  9254  9259      1
  9260  9259  9260      1
  9261  9259  9261      1
  9262  9259  9262      1
  9263  9260  9263      1
  9264  9260  9264      1
  9265  9260  9265      1
  9266  9265  9266      1
  9267  9265  9267      1
  9268  9265  9268      1
  9269  9266  9269      1
  9270  9266  9270      1
  9271  9266  9271      1
  9272  9271  9272      1
  9273  9271  9273      1
  9274  9271  9274      1
  9275  9272  9275      1
  9276  9272  9276      1
  9277  9272  9277      1
  9278  9277  9278      1
  9279  9277  9279      1
  9280  9277  9280      1
  9281  9278  9281      1
  9282  9278  9282      1
  9283  9278  9283      1
  9284  9283  9284      1
  9285  9283  9285      1
  9286  9283  9286      1
  9287  9284  9287      1
  9288  9284  9288      1
  9289  9284  9289      1
  9290  9289  9290      1
  9291  9289  9291      1
  9292  9289  9292      1
  9293  9290  9293      1
  9294  9290  9294      1
  9295  9290  9295      1
  9296  9295  9296      1
  9297  9295  9297      1
  9298  9295  9298      1
  9299  9296  9299      1
  9300  9296  9300      1
  9301  9296  9301      1
  9302  9301  9302      1
  9303  9301  9303      1
  9304  9301  9304      1
  9305  9302  9305      1
  9306  9302  9306      1
  9307  9302  9307      1
  9308  9307  9308      1
  9309  9307  9309      1
  9310  9307  9310      1
  9311  9308  9311      1
  9312  9308  9312      1
  9313  9308  9313      1
  9314  9313  9314      1
  9315  9313  9315      1
  9316  9313  9316      1
  9317  9314  9317      1
  9318  9314  9318      1
  9319  9314  9319      1
  9320  9319  9320      1
  9321  9319  9321      1
  9322  9319  9322      1
  9323  9320  9323      1
  9324  9320  9324      1
  9325  9320  9325      1
  9326  9325  9326      1
  9327  9325  9327      1
  9328  9325  9328      1
  9329  9326  9329      1
  9330  9326  9330      1
  9331  9326  9331      1
  9332  9331  9332      1
  9333  9331  9333      1
  9334  9331  9334      1
  9335  9332  9335      1
  9336  9332  9336      1
  9337  9332  9337      1
  9338  9337  9338      1
  9339  9337  9339      1
  9340  9337  9340      1
  9341  9338  9341      1
  9342  9338  9342      1
  9343  9338  9343      1
  9344  9343  9344      1
  9345  9343  9345      1
  9346  9343  9346      1
  9347  9344  9347      1
  9348  9344  9348      1
  9349  9344  9349      1
  9350  9349  9350      1
  9351  9349  9351      1
  9352  9349  9352      1
  9353  9350  9353      1
  9354  9350  9354      1
  9355  9350  9355      1
  9356  9355  9356      1
  9357  9355  9357      1
  9358  9355  9358      1
  9359  9356  9359      1
  9360  9356  9360      1
  9361  9356  9361      1
  9362  9361  9362      1
  9363  9361  9363      1
  9364  9361  9364      1
  9365  9362  9365      1
  9366  9362  9366      1
  9367  9362  9367      1
  9368  9367  9368      1
  9369  9367  9369      1
  9370  9367  9370      1
  9371  9368  9371      1
  9372  9368  9372      1
  9373  9368  9373      1
  9374  9373  9374      1
  9375  9373  9375      1
  9376  9373  9376      1
  9377  9374  9377      1
  9378  9374  9378      1
  9379  9374  9379      1
  9380  9379  9380      1
  9381  9379  9381      1
  9382  9379  9382      1
  9383  9380  9383      1
  9384  9380  9384      1
  9385  9380  9385      1
  9386  9385  9386      1
  9387  9385  9387      1
  9388  9385  9388      1
  9389  9386  9389      1
  9390  9386  9390      1
  9391  9386  9391      1
  9392  9391  9392      1
  9393  9391  9393      1
  9394  9391  9394      1
  9395  9392  9395      1
  9396  9392  9396      1
  9397  9392  9397      1
  9398  9397  9398      1
  9399  9397  9399      1
  9400  9397  9400      1
  9401  9398  9401      1
  9402  9398  9402      1
  9403  9398  9403      1
  9404  9403  9404      1
  9405  9403  9405      1
  9406  9403  9406      1
  9407  9404  9407      1
  9408  9404  9408      1
  9409  9404  9409      1
  9410  9409  9410      1
  9411  9409  9411      1
  9412  9409  9412      1
  9413  9410  9413      1
  9414  9410  9414      1
  9415  9410  9415      1
  9416  9415  9416      1
  9417  9415  9417      1
  9418  9415  9418      1
  9419  9416  9419      1
  9420  9416  9420      1
  9421  9416  9421      1
  9422  9421  9422      1
  9423  9421  9423      1
  9424  9421  9424      1
  9425  9422  9425      1
  9426  9422  9426      1
  9427  9422  9427      1
  9428  9427  9428      1
  9429  9427  9429      1
  9430  9427  9430      1
  9431  9428  9431      1
  9432  9428  9432      1
  9433  9428  9433      1
  9434  9433  9434      1
  9435  9433  9435      1
  9436  9433  9436      1
  9437  9434  9437      1
  9438  9434  9438      1
  9439  9434  9439      1
  9440  9439  9440      1
  9441  9439  9441      1
  9442  9439  9442      1
  9443  9440  9443      1
  9444  9440  9444      1
  9445  9440  9445      1
  9446  9445  9446      1
  9447  9445  9447      1
  9448  9445  9448      1
  9449  9446  9449      1
  9450  9446  9450      1
  9451  9446  9451      1
  9452  9451  9452      1
  9453  9451  9453      1
  9454  9451  9454      1
  9455  9452  9455      1
  9456  9452  9456      1
  9457  9452  9457      1
  9458  9457  9458      1
  9459  9457  9459      1
  9460  9457  9460      1
  9461  9458  9461      1
  9462  9458  9462      1
  9463  9458  9463      1
  9464  9463  9464      1
  9465  9463  9465      1
  9466  9463  9466      1
  9467  9464  9467      1
  9468  9464  9468      1
  9469  9464  9469      1
  9470  9469  9470      1
  9471  9469  9471      1
  9472  9469  9472      1
  9473  9470  9473      1
  9474  9470  9474      1
  9475  9470  9475      1
  9476  9475  9476      1
  9477  9475  9477      1
  9478  9475  9478      1
  9479  9476  9479      1
  9480  9476  9480      1
  9481  9476  9481      1
  9482  9481  9482      1
  9483  9481  9483      1
  9484  9481  9484      1
  9485  9482  9485      1
  9486  9482  9486      1
  9487  9482  9487      1
  9488  9487  9488      1
  9489  9487  9489      1
  9490  9487  9490      1
  9491  9488  9491      1
  9492  9488  9492      1
  9493  9488  9493      1
  9494  9493  9494      1
  9495  9493  9495      1
  9496  9493  9496      1
  9497  9494  9497      1
  9498  9494  9498      1
  9499  9494  9499      1
  9500  9499  9500      1
  9501  9499  9501      1
  9502  9499  9502      1
  9503  9500  9503      1
  9504  9500  9504      1
  9505  9500  9505      1
  9506  9505  9506      1
  9507  9505  9507      1
  9508  9505  9508      1
  9509  9506  9509      1
  9510  9506  9510      1
  9511  9506  9511      1
  9512  9511  9512      1
  9513  9511  9513      1
  9514  9511  9514      1
  9515  9512  9515      1
  9516  9512  9516      1
  9517  9512  9517      1
  9518  9517  9518      1
  9519  9517  9519      1
  9520  9517  9520      1
  9521  9518  9521      1
  9522  9518  9522      1
  9523  9518  9523      1
  9524  9523  9524      1
  9525  9523  9525      1
  9526  9523  9526      1
  9527  9524  9527      1
  9528  9524  9528      1
  9529  9524  9529      1
  9530  9529  9530      1
  9531  9529  9531      1
  9532  9529  9532      1
  9533  9530  9533      1
  9534  9530  9534      1
  9535  9530  9535      1
  9536  9535  9536      1
  9537  9535  9537      1
  9538  9535  9538      1
  9539  9536  9539      1
  9540  9536  9540      1
  9541  9536  9541      1
  9542  9541  9542      1
  9543  9541  9543      1
  9544  9541  9544      1
  9545  9542  9545      1
  9546  9542  9546      1
  9547  9542  9547      1
  9548  9547  9548      1
  9549  9547  9549      1
  9550  9547  9550      1
  9551  9548  9551      1
  9552  9548  9552      1
  9553  9548  9553      1
  9554  9553  9554      1
  9555  9553  9555      1
  9556  9553  9556      1
  9557  9554  9557      1
  9558  9554  9558      1
  9559  9554  9559      1
  9560  9559  9560      1
  9561  9559  9561      1
  9562  9559  9562      1
  9563  9560  9563      1
  9564  9560  9564      1
  9565  9560  9565      1
  9566  9565  9566      1
  9567  9565  9567      1
  9568  9565  9568      1
  9569  9566  9569      1
  9570  9566  9570      1
  9571  9566  9571      1
  9572  9571  9572      1
  9573  9571  9573      1
  9574  9571  9574      1
  9575  9572  9575      1
  9576  9572  9576      1
  9577  9572  9577      1
  9578  9577  9578      1
  9579  9577  9579      1
  9580  9577  9580      1
  9581  9578  9581      1
  9582  9578  9582      1
  9583  9578  9583      1
  9584  9583  9584      1
  9585  9583  9585      1
  9586  9583  9586      1
  9587  9584  9587      1
  9588  9584  9588      1
  9589  9584  9589      1
  9590  9589  9590      1
  9591  9589  9591      1
  9592  9589  9592      1
  9593  9590  9593      1
  9594  9590  9594      1
  9595  9590  9595      1
  9596  9595  9596      1
  9597  9595  9597      1
  9598  9595  9598      1
  9599  9596  9599      1
  9600  9596  9600      1
  9601  9596  9601      1
  9602  9601  9602      1
  9603  9601  9603      1
  9604  9601  9604      1
  9605  9602  9605      1
  9606  9602  9606      1
  9607  9602  9607      1
  9608  9607  9608      1
  9609  9607  9609      1
  9610  9607  9610      1
  9611  9608  9611      1
  9612  9608  9612      1
  9613  9608  9613      1
  9614  9613  9614      1
  9615  9613  9615      1
  9616  9613  9616      1
  9617  9614  9617      1
  9618  9614  9618      1
  9619  9614  9619      1
  9620  9619  9620      1
  9621  9619  9621      1
  9622  9619  9622      1
  9623  9620  9623      1
  9624  9620  9624      1
  9625  9620  9625      1
  9626  9625  9626      1
  9627  9625  9627      1
  9628  9625  9628      1
  9629  9626  9629      1
  9630  9626  9630      1
  9631  9626  9631      1
  9632  9631  9632      1
  9633  9631  9633      1
  9634  9631  9634      1
  9635  9632  9635      1
  9636  9632  9636      1
  9637  9632  9637      1
  9638  9637  9638      1
  9639  9637  9639      1
  9640  9637  9640      1
  9641  9638  9641      1
  9642  9638  9642      1
  9643  9638  9643      1
  9644  9643  9644      1
  9645  9643  9645      1
  9646  9643  9646      1
  9647  9644  9647      1
  9648  9644  9648      1
  9649  9644  9649      1
  9650  9649  9650      1
  9651  9649  9651      1
  9652  9649  9652      1
  9653  9650  9653      1
  9654  9650  9654      1
  9655  9650  9655      1
  9656  9655  9656      1
  9657  9655  9657      1
  9658  9655  9658      1
  9659  9656  9659      1
  9660  9656  9660      1
  9661  9656  9661      1
  9662  9661  9662      1
  9663  9661  9663      1
  9664  9661  9664      1
  9665  9662  9665      1
  9666  9662  9666      1
  9667  9662  9667      1
  9668  9667  9668      1
  9669  9667  9669      1
  9670  9667  9670      1
  9671  9668  9671      1
  9672  9668  9672      1
  9673  9668  9673      1
  9674  9673  9674      1
  9675  9673  9675      1
  9676  9673  9676      1
  9677  9674  9677      1
  9678  9674  9678      1
  9679  9674  9679      1
  9680  9679  9680      1
  9681  9679  9681      1
  9682  9679  9682      1
  9683  9680  9683      1
  9684  9680  9684      1
  9685  9680  9685      1
  9686  9685  9686      1
  9687  9685  9687      1
  9688  9685  9688      1
  9689  9686  9689      1
  9690  9686  9690      1
  9691  9686  9691      1
  9692  9691  9692      1
  9693  9691  9693      1
  9694  9691  9694      1
  9695  9692  9695      1
  9696  9692  9696      1
  9697  9692  9697      1
  9698  9697  9698      1
  9699  9697  9699      1
  9700  9697  9700      1
  9701  9698  9701      1
  9702  9698  9702      1
  9703  9698  9703      1
  9704  9703  9704      1
  9705  9703  9705      1
  9706  9703  9706      1
  9707  9704  9707      1
  9708  9704  9708      1
  9709  9704  9709      1
  9710  9709  9710      1
  9711  9709  9711      1
  9712  9709  9712      1
  9713  9710  9713      1
  9714  9710  9714      1
  9715  9710  9715      1
  9716  9715  9716      1
  9717  9715  9717      1
  9718  9715  9718      1
  9719  9716  9719      1
  9720  9716  9720      1
  9721  9716  9721      1
  9722  9721  9722      1
  9723  9721  9723      1
  9724  9721  9724      1
  9725  9722  9725      1
  9726  9722  9726      1
  9727  9722  9727      1
  9728  9727  9728      1
  9729  9727  9729      1
  9730  9727  9730      1
  9731  9728  9731      1
  9732  9728  9732      1
  9733  9728  9733      1
  9734  9733  9734      1
  9735  9733  9735      1
  9736  9733  9736      1
  9737  9734  9737      1
  9738  9734  9738      1
  9739  9734  9739      1
  9740  9739  9740      1
  9741  9739  9741      1
  9742  9739  9742      1
  9743  9740  9743      1
  9744  9740  9744      1
  9745  9740  9745      1
  9746  9745  9746      1
  9747  9745  9747      1
  9748  9745  9748      1
  9749  9746  9749      1
  9750  9746  9750      1
  9751  9746  9751      1
  9752  9751  9752      1
  9753  9751  9753      1
  9754  9751  9754      1
  9755  9752  9755      1
  9756  9752  9756      1
  9757  9752  9757      1
  9758  9757  9758      1
  9759  9757  9759      1
  9760  9757  9760      1
  9761  9758  9761      1
  9762  9758  9762      1
  9763  9758  9763      1
  9764  9763  9764      1
  9765  9763  9765      1
  9766  9763  9766      1
  9767  9764  9767      1
  9768  9764  9768      1
  9769  9764  9769      1
  9770  9769  9770      1
  9771  9769  9771      1
  9772  9769  9772      1
  9773  9770  9773      1
  9774  9770  9774      1
  9775  9770  9775      1
  9776  9775  9776      1
  9777  9775  9777      1
  9778  9775  9778      1
  9779  9776  9779      1
  9780  9776  9780      1
  9781  9776  9781      1
  9782  9781  9782      1
  9783  9781  9783      1
  9784  9781  9784      1
  9785  9782  9785      1
  9786  9782  9786      1
  9787  9782  9787      1
  9788  9787  9788      1
  9789  9787  9789      1
  9790  9787  9790      1
  9791  9788  9791      1
  9792  9788  9792      1
  9793  9788  9793      1
  9794  9793  9794      1
  9795  9793  9795      1
  9796  9793  9796      1
  9797  9794  9797      1
  9798  9794  9798      1
  9799  9794  9799      1
  9800  9799  9800      1
  9801  9799  9801      1
  9802  9799  9802      1
  9803  9800  9803      1
  9804  9800  9804      1
  9805  9800  9805      1
  9806  9805  9806      1
  9807  9805  9807      1
  9808  9805  9808      1
  9809  9806  9809      1
  9810  9806  9810      1
  9811  9806  9811      1
  9812  9811  9812      1
  9813  9811  9813      1
  9814  9811  9814      1
  9815  9812  9815      1
  9816  9812  9816      1
  9817  9812  9817      1
  9818  9817  9818      1
  9819  9817  9819      1
  9820  9817  9820      1
  9821  9818  9821      1
  9822  9818  9822      1
  9823  9818  9823      1
  9824  9823  9824      1
  9825  9823  9825      1
  9826  9823  9826      1
  9827  9824  9827      1
  9828  9824  9828      1
  9829  9824  9829      1
  9830  9829  9830      1
  9831  9829  9831      1
  9832  9829  9832      1
  9833  9830  9833      1
  9834  9830  9834      1
  9835  9830  9835      1
  9836  9835  9836      1
  9837  9835  9837      1
  9838  9835  9838      1
  9839  9836  9839      1
  9840  9836  9840      1
  9841  9836  9841      1
  9842  9841  9842      1
  9843  9841  9843      1
  9844  9841  9844      1
  9845  9842  9845      1
  9846  9842  9846      1
  9847  9842  9847      1
  9848  9847  9848      1
  9849  9847  9849      1
  9850  9847  9850      1
  9851  9848  9851      1
  9852  9848  9852      1
  9853  9848  9853      1
  9854  9853  9854      1
  9855  9853  9855      1
  9856  9853  9856      1
  9857  9854  9857      1
  9858  9854  9858      1
  9859  9854  9859      1
  9860  9859  9860      1
  9861  9859  9861      1
  9862  9859  9862      1
  9863  9860  9863      1
  9864  9860  9864      1
  9865  9860  9865      1
  9866  9865  9866      1
  9867  9865  9867      1
  9868  9865  9868      1
  9869  9866  9869      1
  9870  9866  9870      1
  9871  9866  9871      1
  9872  9871  9872      1
  9873  9871  9873      1
  9874  9871  9874      1
  9875  9872  9875      1
  9876  9872  9876      1
  9877  9872  9877      1
  9878  9877  9878      1
  9879  9877  9879      1
  9880  9877  9880      1
  9881  9878  9881      1
  9882  9878  9882      1
  9883  9878  9883      1
  9884  9883  9884      1
  9885  9883  9885      1
  9886  9883  9886      1
  9887  9884  9887      1
  9888  9884  9888      1
  9889  9884  9889      1
  9890  9889  9890      1
  9891  9889  9891      1
  9892  9889  9892      1
  9893  9890  9893      1
  9894  9890  9894      1
  9895  9890  9895      1
  9896  9895  9896      1
  9897  9895  9897      1
  9898  9895  9898      1
  9899  9896  9899      1
  9900  9896  9900      1
  9901  9896  9901      1
  9902  9901  9902      1
  9903  9901  9903      1
  9904  9901  9904      1
  9905  9902  9905      1
  9906  9902  9906      1
  9907  9902  9907      1
  9908  9907  9908      1
  9909  9907  9909      1
  9910  9907  9910      1
  9911  9908  9911      1
  9912  9908  9912      1
  9913  9908  9913      1
  9914  9913  9914      1
  9915  9913  9915      1
  9916  9913  9916      1
  9917  9914  9917      1
  9918  9914  9918      1
  9919  9914  9919      1
  9920  9919  9920      1
  9921  9919  9921      1
  9922  9919  9922      1
  9923  9920  9923      1
  9924  9920  9924      1
  9925  9920  9925      1
  9926  9925  9926      1
  9927  9925  9927      1
  9928  9925  9928      1
  9929  9926  9929      1
  9930  9926  9930      1
  9931  9926  9931      1
  9932  9931  9932      1
  9933  9931  9933      1
  9934  9931  9934      1
  9935  9932  9935      1
  9936  9932  9936      1
  9937  9932  9937      1
  9938  9937  9938      1
  9939  9937  9939      1
  9940  9937  9940      1
  9941  9938  9941      1
  9942  9938  9942      1
  9943  9938  9943      1
  9944  9943  9944      1
  9945  9943  9945      1
  9946  9943  9946      1
  9947  9944  9947      1
  9948  9944  9948      1
  9949  9944  9949      1
  9950  9949  9950      1
  9951  9949  9951      1
  9952  9949  9952      1
  9953  9950  9953      1
  9954  9950  9954      1
  9955  9950  9955      1
  9956  9955  9956      1
  9957  9955  9957      1
  9958  9955  9958      1
  9959  9956  9959      1
  9960  9956  9960      1
  9961  9956  9961      1
  9962  9961  9962      1
  9963  9961  9963      1
  9964  9961  9964      1
  9965  9962  9965      1
  9966  9962  9966      1
  9967  9962  9967      1
  9968  9967  9968      1
  9969  9967  9969      1
  9970  9967  9970      1
  9971  9968  9971      1
  9972  9968  9972      1
  9973  9968  9973      1
  9974  9973  9974      1
  9975  9973  9975      1
  9976  9973  9976      1
  9977  9974  9977      1
  9978  9974  9978      1
  9979  9974  9979      1
  9980  9979  9980      1
  9981  9979  9981      1
  9982  9979  9982      1
  9983  9980  9983      1
  9984  9980  9984      1
  9985  9980  9985      1
  9986  9985  9986      1
  9987  9985  9987      1
  9988  9985  9988      1
  9989  9986  9989      1
  9990  9986  9990      1
  9991  9986  9991      1
  9992  9991  9992      1
  9993  9991  9993      1
  9994  9991  9994      1
  9995  9992  9995      1
  9996  9992  9996      1
  9997  9992  9997      1
  9998  9997  9998      1
  9999  9997  9999      1
 10000  9997 10000      1
 10001  9998 10001      1
 10002  9998 10002      1
 10003  9998 10003      1
 10004 10003 10004      1
 10005 10003 10005      1
 10006 10003 10006      1
 10007 10004 10007      1
 10008 10004 10008      1
 10009 10004 10009      1
 10010 10009 10010      1
 10011 10009 10011      1
 10012 10009 10012      1
 10013 10010 10013      1
 10014 10010 10014      1
 10015 10010 10015      1
 10016 10015 10016      1
 10017 10015 10017      1
 10018 10015 10018      1
 10019 10016 10019      1
 10020 10016 10020      1
 10021 10016 10021      1
 10022 10021 10022      1
 10023 10021 10023      1
 10024 10021 10024      1
 10025 10022 10025      1
 10026 10022 10026      1
 10027 10022 10027      1
 10028 10027 10028      1
 10029 10027 10029      1
 10030 10027 10030      1
 10031 10028 10031      1
 10032 10028 10032      1
 10033 10028 10033      1
 10034 10033 10034      1
 10035 10033 10035      1
 10036 10033 10036      1
 10037 10034 10037      1
 10038 10034 10038      1
 10039 10034 10039      1
 10040 10039 10040      1
 10041 10039 10041      1
 10042 10039 10042      1
 10043 10040 10043      1
 10044 10040 10044      1
 10045 10040 10045      1
 10046 10045 10046      1
 10047 10045 10047      1
 10048 10045 10048      1
 10049 10046 10049      1
 10050 10046 10050      1
 10051 10046 10051      1
 10052 10051 10052      1
 10053 10051 10053      1
 10054 10051 10054      1
 10055 10052 10055      1
 10056 10052 10056      1
 10057 10052 10057      1
 10058 10057 10058      1
 10059 10057 10059      1
 10060 10057 10060      1
 10061 10058 10061      1
 10062 10058 10062      1
 10063 10058 10063      1
 10064 10063 10064      1
 10065 10063 10065      1
 10066 10063 10066      1
 10067 10064 10067      1
 10068 10064 10068      1
 10069 10064 10069      1
 10070 10069 10070      1
 10071 10069 10071      1
 10072 10069 10072      1
 10073 10070 10073      1
 10074 10070 10074      1
 10075 10070 10075      1
 10076 10075 10076      1
 10077 10075 10077      1
 10078 10075 10078      1
 10079 10076 10079      1
 10080 10076 10080      1
 10081 10076 10081      1
 10082 10081 10082      1
 10083 10081 10083      1
 10084 10081 10084      1
 10085 10082 10085      1
 10086 10082 10086      1
 10087 10082 10087      1
 10088 10087 10088      1
 10089 10087 10089      1
 10090 10087 10090      1
 10091 10088 10091      1
 10092 10088 10092      1
 10093 10088 10093      1
 10094 10093 10094      1
 10095 10093 10095      1
 10096 10093 10096      1
 10097 10094 10097      1
 10098 10094 10098      1
 10099 10094 10099      1
 10100 10099 10100      1
 10101 10099 10101      1
 10102 10099 10102      1
 10103 10100 10103      1
 10104 10100 10104      1
 10105 10100 10105      1
 10106 10105 10106      1
 10107 10105 10107      1
 10108 10105 10108      1
 10109 10106 10109      1
 10110 10106 10110      1
 10111 10106 10111      1
 10112 10111 10112      1
 10113 10111 10113      1
 10114 10111 10114      1
 10115 10112 10115      1
 10116 10112 10116      1
 10117 10112 10117      1
 10118 10117 10118      1
 10119 10117 10119      1
 10120 10117 10120      1
 10121 10118 10121      1
 10122 10118 10122      1
 10123 10118 10123      1
 10124 10123 10124      1
 10125 10123 10125      1
 10126 10123 10126      1
 10127 10124 10127      1
 10128 10124 10128      1
 10129 10124 10129      1
 10130 10129 10130      1
 10131 10129 10131      1
 10132 10129 10132      1
 10133 10130 10133      1
 10134 10130 10134      1
 10135 10130 10135      1
 10136 10135 10136      1
 10137 10135 10137      1
 10138 10135 10138      1
 10139 10136 10139      1
 10140 10136 10140      1
 10141 10136 10141      1
 10142 10141 10142      1
 10143 10141 10143      1
 10144 10141 10144      1
 10145 10142 10145      1
 10146 10142 10146      1
 10147 10142 10147      1
 10148 10147 10148      1
 10149 10147 10149      1
 10150 10147 10150      1
 10151 10148 10151      1
 10152 10148 10152      1
 10153 10148 10153      1
 10154 10153 10154      1
 10155 10153 10155      1
 10156 10153 10156      1
 10157 10154 10157      1
 10158 10154 10158      1
 10159 10154 10159      1
 10160 10159 10160      1
 10161 10159 10161      1
 10162 10159 10162      1
 10163 10160 10163      1
 10164 10160 10164      1
 10165 10160 10165      1
 10166 10165 10166      1
 10167 10165 10167      1
 10168 10165 10168      1
 10169 10166 10169      1
 10170 10166 10170      1
 10171 10166 10171      1
 10172 10171 10172      1
 10173 10171 10173      1
 10174 10171 10174      1
 10175 10172 10175      1
 10176 10172 10176      1
 10177 10172 10177      1
 10178 10177 10178      1
 10179 10177 10179      1
 10180 10177 10180      1
 10181 10178 10181      1
 10182 10178 10182      1
 10183 10178 10183      1
 10184 10183 10184      1
 10185 10183 10185      1
 10186 10183 10186      1
 10187 10184 10187      1
 10188 10184 10188      1
 10189 10184 10189      1
 10190 10189 10190      1
 10191 10189 10191      1
 10192 10189 10192      1
 10193 10190 10193      1
 10194 10190 10194      1
 10195 10190 10195      1
 10196 10195 10196      1
 10197 10195 10197      1
 10198 10195 10198      1
 10199 10196 10199      1
 10200 10196 10200      1
 10201 10196 10201      1
 10202 10201 10202      1
 10203 10201 10203      1
 10204 10201 10204      1
 10205 10202 10205      1
 10206 10202 10206      1
 10207 10202 10207      1
 10208 10207 10208      1
 10209 10207 10209      1
 10210 10207 10210      1
 10211 10208 10211      1
 10212 10208 10212      1
 10213 10208 10213      1
 10214 10213 10214      1
 10215 10213 10215      1
 10216 10213 10216      1
 10217 10214 10217      1
 10218 10214 10218      1
 10219 10214 10219      1
 10220 10219 10220      1
 10221 10219 10221      1
 10222 10219 10222      1
 10223 10220 10223      1
 10224 10220 10224      1
 10225 10220 10225      1
 10226 10225 10226      1
 10227 10225 10227      1
 10228 10225 10228      1
 10229 10226 10229      1
 10230 10226 10230      1
 10231 10226 10231      1
 10232 10231 10232      1
 10233 10231 10233      1
 10234 10231 10234      1
 10235 10232 10235      1
 10236 10232 10236      1
 10237 10232 10237      1
 10238 10237 10238      1
 10239 10237 10239      1
 10240 10237 10240      1
 10241 10238 10241      1
 10242 10238 10242      1
 10243 10238 10243      1
 10244 10243 10244      1
 10245 10243 10245      1
 10246 10243 10246      1
 10247 10244 10247      1
 10248 10244 10248      1
 10249 10244 10249      1
 10250 10249 10250      1
 10251 10249 10251      1
 10252 10249 10252      1
 10253 10250 10253      1
 10254 10250 10254      1
 10255 10250 10255      1
 10256 10255 10256      1
 10257 10255 10257      1
 10258 10255 10258      1
 10259 10256 10259      1
 10260 10256 10260      1
 10261 10256 10261      1
 10262 10261 10262      1
 10263 10261 10263      1
 10264 10261 10264      1
 10265 10262 10265      1
 10266 10262 10266      1
 10267 10262 10267      1
 10268 10267 10268      1
 10269 10267 10269      1
 10270 10267 10270      1
 10271 10268 10271      1
 10272 10268 10272      1
 10273 10268 10273      1
 10274 10273 10274      1
 10275 10273 10275      1
 10276 10273 10276      1
 10277 10274 10277      1
 10278 10274 10278      1
 10279 10274 10279      1
 10280 10279 10280      1
 10281 10279 10281      1
 10282 10279 10282      1
 10283 10280 10283      1
 10284 10280 10284      1
 10285 10280 10285      1
 10286 10285 10286      1
 10287 10285 10287      1
 10288 10285 10288      1
 10289 10286 10289      1
 10290 10286 10290      1
 10291 10286 10291      1
 10292 10291 10292      1
 10293 10291 10293      1
 10294 10291 10294      1
 10295 10292 10295      1
 10296 10292 10296      1
 10297 10292 10297      1
 10298 10297 10298      1
 10299 10297 10299      1
 10300 10297 10300      1
 10301 10298 10301      1
 10302 10298 10302      1
 10303 10298 10303      1
 10304 10303 10304      1
 10305 10303 10305      1
 10306 10303 10306      1
 10307 10304 10307      1
 10308 10304 10308      1
 10309 10304 10309      1
 10310 10309 10310      1
 10311 10309 10311      1
 10312 10309 10312      1
 10313 10310 10313      1
 10314 10310 10314      1
 10315 10310 10315      1
 10316 10315 10316      1
 10317 10315 10317      1
 10318 10315 10318      1
 10319 10316 10319      1
 10320 10316 10320      1
 10321 10316 10321      1
 10322 10321 10322      1
 10323 10321 10323      1
 10324 10321 10324      1
 10325 10322 10325      1
 10326 10322 10326      1
 10327 10322 10327      1
 10328 10327 10328      1
 10329 10327 10329      1
 10330 10327 10330      1
 10331 10328 10331      1
 10332 10328 10332      1
 10333 10328 10333      1
 10334 10333 10334      1
 10335 10333 10335      1
 10336 10333 10336      1
 10337 10334 10337      1
 10338 10334 10338      1
 10339 10334 10339      1
 10340 10339 10340      1
 10341 10339 10341      1
 10342 10339 10342      1
 10343 10340 10343      1
 10344 10340 10344      1
 10345 10340 10345      1
 10346 10345 10346      1
 10347 10345 10347      1
 10348 10345 10348      1
 10349 10346 10349      1
 10350 10346 10350      1
 10351 10346 10351      1
 10352 10351 10352      1
 10353 10351 10353      1
 10354 10351 10354      1
 10355 10352 10355      1
 10356 10352 10356      1
 10357 10352 10357      1
 10358 10357 10358      1
 10359 10357 10359      1
 10360 10357 10360      1
 10361 10358 10361      1
 10362 10358 10362      1
 10363 10358 10363      1
 10364 10363 10364      1
 10365 10363 10365      1
 10366 10363 10366      1
 10367 10364 10367      1
 10368 10364 10368      1
 10369 10364 10369      1
 10370 10369 10370      1
 10371 10369 10371      1
 10372 10369 10372      1
 10373 10370 10373      1
 10374 10370 10374      1
 10375 10370 10375      1
 10376 10375 10376      1
 10377 10375 10377      1
 10378 10375 10378      1
 10379 10376 10379      1
 10380 10376 10380      1
 10381 10376 10381      1
 10382 10381 10382      1
 10383 10381 10383      1
 10384 10381 10384      1
 10385 10382 10385      1
 10386 10382 10386      1
 10387 10382 10387      1
 10388 10387 10388      1
 10389 10387 10389      1
 10390 10387 10390      1
 10391 10388 10391      1
 10392 10388 10392      1
 10393 10388 10393      1
 10394 10393 10394      1
 10395 10393 10395      1
 10396 10393 10396      1
 10397 10394 10397      1
 10398 10394 10398      1
 10399 10394 10399      1
 10400 10399 10400      1
 10401 10399 10401      1
 10402 10399 10402      1
 10403 10400 10403      1
 10404 10400 10404      1
 10405 10400 10405      1
 10406 10405 10406      1
 10407 10405 10407      1
 10408 10405 10408      1
 10409 10406 10409      1
 10410 10406 10410      1
 10411 10406 10411      1
 10412 10411 10412      1
 10413 10411 10413      1
 10414 10411 10414      1
 10415 10412 10415      1
 10416 10412 10416      1
 10417 10412 10417      1
 10418 10417 10418      1
 10419 10417 10419      1
 10420 10417 10420      1
 10421 10418 10421      1
 10422 10418 10422      1
 10423 10418 10423      1
 10424 10423 10424      1
 10425 10423 10425      1
 10426 10423 10426      1
 10427 10424 10427      1
 10428 10424 10428      1
 10429 10424 10429      1
 10430 10429 10430      1
 10431 10429 10431      1
 10432 10429 10432      1
 10433 10430 10433      1
 10434 10430 10434      1
 10435 10430 10435      1
 10436 10435 10436      1
 10437 10435 10437      1
 10438 10435 10438      1
 10439 10436 10439      1
 10440 10436 10440      1
 10441 10436 10441      1
 10442 10441 10442      1
 10443 10441 10443      1
 10444 10441 10444      1
 10445 10442 10445      1
 10446 10442 10446      1
 10447 10442 10447      1
 10448 10447 10448      1
 10449 10447 10449      1
 10450 10447 10450      1
 10451 10448 10451      1
 10452 10448 10452      1
 10453 10448 10453      1
 10454 10453 10454      1
 10455 10453 10455      1
 10456 10453 10456      1
 10457 10454 10457      1
 10458 10454 10458      1
 10459 10454 10459      1
 10460 10459 10460      1
 10461 10459 10461      1
 10462 10459 10462      1
 10463 10460 10463      1
 10464 10460 10464      1
 10465 10460 10465      1
 10466 10465 10466      1
 10467 10465 10467      1
 10468 10465 10468      1
 10469 10466 10469      1
 10470 10466 10470      1
 10471 10466 10471      1
 10472 10471 10472      1
 10473 10471 10473      1
 10474 10471 10474      1
 10475 10472 10475      1
 10476 10472 10476      1
 10477 10472 10477      1
 10478 10477 10478      1
 10479 10477 10479      1
 10480 10477 10480      1
 10481 10478 10481      1
 10482 10478 10482      1
 10483 10478 10483      1
 10484 10483 10484      1
 10485 10483 10485      1
 10486 10483 10486      1
 10487 10484 10487      1
 10488 10484 10488      1
 10489 10484 10489      1
 10490 10489 10490      1
 10491 10489 10491      1
 10492 10489 10492      1
 10493 10490 10493      1
 10494 10490 10494      1
 10495 10490 10495      1
 10496 10495 10496      1
 10497 10495 10497      1
 10498 10495 10498      1
 10499 10496 10499      1
 10500 10496 10500      1
 10501 10496 10501      1
 10502 10501 10502      1
 10503 10501 10503      1
 10504 10501 10504      1
 10505 10502 10505      1
 10506 10502 10506      1
 10507 10502 10507      1
 10508 10507 10508      1
 10509 10507 10509      1
 10510 10507 10510      1
 10511 10508 10511      1
 10512 10508 10512      1
 10513 10508 10513      1
 10514 10513 10514      1
 10515 10513 10515      1
 10516 10513 10516      1
 10517 10514 10517      1
 10518 10514 10518      1
 10519 10514 10519      1
 10520 10519 10520      1
 10521 10519 10521      1
 10522 10519 10522      1
 10523 10520 10523      1
 10524 10520 10524      1
 10525 10520 10525      1
 10526 10525 10526      1
 10527 10525 10527      1
 10528 10525 10528      1
 10529 10526 10529      1
 10530 10526 10530      1
 10531 10526 10531      1
 10532 10531 10532      1
 10533 10531 10533      1
 10534 10531 10534      1
 10535 10532 10535      1
 10536 10532 10536      1
 10537 10532 10537      1
 10538 10537 10538      1
 10539 10537 10539      1
 10540 10537 10540      1
 10541 10538 10541      1
 10542 10538 10542      1
 10543 10538 10543      1
 10544 10543 10544      1
 10545 10543 10545      1
 10546 10543 10546      1
 10547 10544 10547      1
 10548 10544 10548      1
 10549 10544 10549      1
 10550 10549 10550      1
 10551 10549 10551      1
 10552 10549 10552      1
 10553 10550 10553      1
 10554 10550 10554      1
 10555 10550 10555      1
 10556 10555 10556      1
 10557 10555 10557      1
 10558 10555 10558      1
 10559 10556 10559      1
 10560 10556 10560      1
 10561 10556 10561      1
 10562 10561 10562      1
 10563 10561 10563      1
 10564 10561 10564      1
 10565 10562 10565      1
 10566 10562 10566      1
 10567 10562 10567      1
 10568 10567 10568      1
 10569 10567 10569      1
 10570 10567 10570      1
 10571 10568 10571      1
 10572 10568 10572      1
 10573 10568 10573      1
 10574 10573 10574      1
 10575 10573 10575      1
 10576 10573 10576      1
 10577 10574 10577      1
 10578 10574 10578      1
 10579 10574 10579      1
 10580 10579 10580      1
 10581 10579 10581      1
 10582 10579 10582      1
 10583 10580 10583      1
 10584 10580 10584      1
 10585 10580 10585      1
 10586 10585 10586      1
 10587 10585 10587      1
 10588 10585 10588      1
 10589 10586 10589      1
 10590 10586 10590      1
 10591 10586 10591      1
 10592 10591 10592      1
 10593 10591 10593      1
 10594 10591 10594      1
 10595 10592 10595      1
 10596 10592 10596      1
 10597 10592 10597      1
 10598 10597 10598      1
 10599 10597 10599      1
 10600 10597 10600      1
 10601 10598 10601      1
 10602 10598 10602      1
 10603 10598 10603      1
 10604 10603 10604      1
 10605 10603 10605      1
 10606 10603 10606      1
 10607 10604 10607      1
 10608 10604 10608      1
 10609 10604 10609      1
 10610 10609 10610      1
 10611 10609 10611      1
 10612 10609 10612      1
 10613 10610 10613      1
 10614 10610 10614      1
 10615 10610 10615      1
 10616 10615 10616      1
 10617 10615 10617      1
 10618 10615 10618      1
 10619 10616 10619      1
 10620 10616 10620      1
 10621 10616 10621      1
 10622 10621 10622      1
 10623 10621 10623      1
 10624 10621 10624      1
 10625 10622 10625      1
 10626 10622 10626      1
 10627 10622 10627      1
 10628 10627 10628      1
 10629 10627 10629      1
 10630 10627 10630      1
 10631 10628 10631      1
 10632 10628 10632      1
 10633 10628 10633      1
 10634 10633 10634      1
 10635 10633 10635      1
 10636 10633 10636      1
 10637 10634 10637      1
 10638 10634 10638      1
 10639 10634 10639      1
 10640 10639 10640      1
 10641 10639 10641      1
 10642 10639 10642      1
 10643 10640 10643      1
 10644 10640 10644      1
 10645 10640 10645      1
 10646 10645 10646      1
 10647 10645 10647      1
 10648 10645 10648      1
 10649 10646 10649      1
 10650 10646 10650      1
 10651 10646 10651      1
 10652 10651 10652      1
 10653 10651 10653      1
 10654 10651 10654      1
 10655 10652 10655      1
 10656 10652 10656      1
 10657 10652 10657      1
 10658 10657 10658      1
 10659 10657 10659      1
 10660 10657 10660      1
 10661 10658 10661      1
 10662 10658 10662      1
 10663 10658 10663      1
 10664 10663 10664      1
 10665 10663 10665      1
 10666 10663 10666      1
 10667 10664 10667      1
 10668 10664 10668      1
 10669 10664 10669      1
 10670 10669 10670      1
 10671 10669 10671      1
 10672 10669 10672      1
 10673 10670 10673      1
 10674 10670 10674      1
 10675 10670 10675      1
 10676 10675 10676      1
 10677 10675 10677      1
 10678 10675 10678      1
 10679 10676 10679      1
 10680 10676 10680      1
 10681 10676 10681      1
 10682 10681 10682      1
 10683 10681 10683      1
 10684 10681 10684      1
 10685 10682 10685      1
 10686 10682 10686      1
 10687 10682 10687      1
 10688 10687 10688      1
 10689 10687 10689      1
 10690 10687 10690      1
 10691 10688 10691      1
 10692 10688 10692      1
 10693 10688 10693      1
 10694 10693 10694      1
 10695 10693 10695      1
 10696 10693 10696      1
 10697 10694 10697      1
 10698 10694 10698      1
 10699 10694 10699      1
 10700 10699 10700      1
 10701 10699 10701      1
 10702 10699 10702      1
 10703 10700 10703      1
 10704 10700 10704      1
 10705 10700 10705      1
 10706 10705 10706      1
 10707 10705 10707      1
 10708 10705 10708      1
 10709 10706 10709      1
 10710 10706 10710      1
 10711 10706 10711      1
 10712 10711 10712      1
 10713 10711 10713      1
 10714 10711 10714      1
 10715 10712 10715      1
 10716 10712 10716      1
 10717 10712 10717      1
 10718 10717 10718      1
 10719 10717 10719      1
 10720 10717 10720      1
 10721 10718 10721      1
 10722 10718 10722      1
 10723 10718 10723      1
 10724 10723 10724      1
 10725 10723 10725      1
 10726 10723 10726      1
 10727 10724 10727      1
 10728 10724 10728      1
 10729 10724 10729      1
 10730 10729 10730      1
 10731 10729 10731      1
 10732 10729 10732      1
 10733 10730 10733      1
 10734 10730 10734      1
 10735 10730 10735      1
 10736 10735 10736      1
 10737 10735 10737      1
 10738 10735 10738      1
 10739 10736 10739      1
 10740 10736 10740      1
 10741 10736 10741      1
 10742 10741 10742      1
 10743 10741 10743      1
 10744 10741 10744      1
 10745 10742 10745      1
 10746 10742 10746      1
 10747 10742 10747      1
 10748 10747 10748      1
 10749 10747 10749      1
 10750 10747 10750      1
 10751 10748 10751      1
 10752 10748 10752      1
 10753 10748 10753      1
 10754 10753 10754      1
 10755 10753 10755      1
 10756 10753 10756      1
 10757 10754 10757      1
 10758 10754 10758      1
 10759 10754 10759      1
 10760 10759 10760      1
 10761 10759 10761      1
 10762 10759 10762      1
 10763 10760 10763      1
 10764 10760 10764      1
 10765 10760 10765      1
 10766 10765 10766      1
 10767 10765 10767      1
 10768 10765 10768      1
 10769 10766 10769      1
 10770 10766 10770      1
 10771 10766 10771      1
 10772 10771 10772      1
 10773 10771 10773      1
 10774 10771 10774      1
 10775 10772 10775      1
 10776 10772 10776      1
 10777 10772 10777      1
 10778 10777 10778      1
 10779 10777 10779      1
 10780 10777 10780      1
 10781 10778 10781      1
 10782 10778 10782      1
 10783 10778 10783      1
 10784 10783 10784      1
 10785 10783 10785      1
 10786 10783 10786      1
 10787 10784 10787      1
 10788 10784 10788      1
 10789 10784 10789      1
 10790 10789 10790      1
 10791 10789 10791      1
 10792 10789 10792      1
 10793 10790 10793      1
 10794 10790 10794      1
 10795 10790 10795      1
 10796 10795 10796      1
 10797 10795 10797      1
 10798 10795 10798      1
 10799 10796 10799      1
 10800 10796 10800      1
 10801 10796 10801      1
 10802 10801 10802      1
 10803 10801 10803      1
 10804 10801 10804      1
 10805 10802 10805      1
 10806 10802 10806      1
 10807 10802 10807      1
 10808 10807 10808      1
 10809 10807 10809      1
 10810 10807 10810      1
 10811 10808 10811      1
 10812 10808 10812      1
 10813 10808 10813      1
 10814 10813 10814      1
 10815 10813 10815      1
 10816 10813 10816      1
 10817 10814 10817      1
 10818 10814 10818      1
 10819 10814 10819      1
 10820 10819 10820      1
 10821 10819 10821      1
 10822 10819 10822      1
 10823 10820 10823      1
 10824 10820 10824      1
 10825 10820 10825      1
 10826 10825 10826      1
 10827 10825 10827      1
 10828 10825 10828      1
 10829 10826 10829      1
 10830 10826 10830      1
 10831 10826 10831      1
 10832 10831 10832      1
 10833 10831 10833      1
 10834 10831 10834      1
 10835 10832 10835      1
 10836 10832 10836      1
 10837 10832 10837      1
 10838 10837 10838      1
 10839 10837 10839      1
 10840 10837 10840      1
 10841 10838 10841      1
 10842 10838 10842      1
 10843 10838 10843      1
 10844 10843 10844      1
 10845 10843 10845      1
 10846 10843 10846      1
 10847 10844 10847      1
 10848 10844 10848      1
 10849 10844 10849      1
 10850 10849 10850      1
 10851 10849 10851      1
 10852 10849 10852      1
 10853 10850 10853      1
 10854 10850 10854      1
 10855 10850 10855      1
 10856 10855 10856      1
 10857 10855 10857      1
 10858 10855 10858      1
 10859 10856 10859      1
 10860 10856 10860      1
 10861 10856 10861      1
 10862 10861 10862      1
 10863 10861 10863      1
 10864 10861 10864      1
 10865 10862 10865      1
 10866 10862 10866      1
 10867 10862 10867      1
 10868 10867 10868      1
 10869 10867 10869      1
 10870 10867 10870      1
 10871 10868 10871      1
 10872 10868 10872      1
 10873 10868 10873      1
 10874 10873 10874      1
 10875 10873 10875      1
 10876 10873 10876      1
 10877 10874 10877      1
 10878 10874 10878      1
 10879 10874 10879      1
 10880 10879 10880      1
 10881 10879 10881      1
 10882 10879 10882      1
 10883 10880 10883      1
 10884 10880 10884      1
 10885 10880 10885      1
 10886 10885 10886      1
 10887 10885 10887      1
 10888 10885 10888      1
 10889 10886 10889      1
 10890 10886 10890      1
 10891 10886 10891      1
 10892 10891 10892      1
 10893 10891 10893      1
 10894 10891 10894      1
 10895 10892 10895      1
 10896 10892 10896      1
 10897 10892 10897      1
 10898 10897 10898      1
 10899 10897 10899      1
 10900 10897 10900      1
 10901 10898 10901      1
 10902 10898 10902      1
 10903 10898 10903      1
 10904 10903 10904      1
 10905 10903 10905      1
 10906 10903 10906      1
 10907 10904 10907      1
 10908 10904 10908      1
 10909 10904 10909      1
 10910 10909 10910      1
 10911 10909 10911      1
 10912 10909 10912      1
 10913 10910 10913      1
 10914 10910 10914      1
 10915 10910 10915      1
 10916 10915 10916      1
 10917 10915 10917      1
 10918 10915 10918      1
 10919 10916 10919      1
 10920 10916 10920      1
 10921 10916 10921      1
 10922 10921 10922      1
 10923 10921 10923      1
 10924 10921 10924      1
 10925 10922 10925      1
 10926 10922 10926      1
 10927 10922 10927      1
 10928 10927 10928      1
 10929 10927 10929      1
 10930 10927 10930      1
 10931 10928 10931      1
 10932 10928 10932      1
 10933 10928 10933      1
 10934 10933 10934      1
 10935 10933 10935      1
 10936 10933 10936      1
 10937 10934 10937      1
 10938 10934 10938      1
 10939 10934 10939      1
 10940 10939 10940      1
 10941 10939 10941      1
 10942 10939 10942      1
 10943 10940 10943      1
 10944 10940 10944      1
 10945 10940 10945      1
 10946 10945 10946      1
 10947 10945 10947      1
 10948 10945 10948      1
 10949 10946 10949      1
 10950 10946 10950      1
 10951 10946 10951      1
 10952 10951 10952      1
 10953 10951 10953      1
 10954 10951 10954      1
 10955 10952 10955      1
 10956 10952 10956      1
 10957 10952 10957      1
 10958 10957 10958      1
 10959 10957 10959      1
 10960 10957 10960      1
 10961 10958 10961      1
 10962 10958 10962      1
 10963 10958 10963      1
 10964 10963 10964      1
 10965 10963 10965      1
 10966 10963 10966      1
 10967 10964 10967      1
 10968 10964 10968      1
 10969 10964 10969      1
 10970 10969 10970      1
 10971 10969 10971      1
 10972 10969 10972      1
 10973 10970 10973      1
 10974 10970 10974      1
 10975 10970 10975      1
 10976 10975 10976      1
 10977 10975 10977      1
 10978 10975 10978      1
 10979 10976 10979      1
 10980 10976 10980      1
 10981 10976 10981      1
 10982 10981 10982      1
 10983 10981 10983      1
 10984 10981 10984      1
 10985 10982 10985      1
 10986 10982 10986      1
 10987 10982 10987      1
 10988 10987 10988      1
 10989 10987 10989      1
 10990 10987 10990      1
 10991 10988 10991      1
 10992 10988 10992      1
 10993 10988 10993      1
 10994 10993 10994      1
 10995 10993 10995      1
 10996 10993 10996      1
 10997 10994 10997      1
 10998 10994 10998      1
 10999 10994 10999      1
 11000 10999 11000      1
 11001 10999 11001      1
 11002 10999 11002      1
 11003 11000 11003      1
 11004 11000 11004      1
 11005 11000 11005      1
 11006 11005 11006      1
 11007 11005 11007      1
 11008 11005 11008      1
 11009 11006 11009      1
 11010 11006 11010      1
 11011 11006 11011      1
 11012 11011 11012      1
 11013 11011 11013      1
 11014 11011 11014      1
 11015 11012 11015      1
 11016 11012 11016      1
 11017 11012 11017      1
 11018 11017 11018      1
 11019 11017 11019      1
 11020 11017 11020      1
 11021 11018 11021      1
 11022 11018 11022      1
 11023 11018 11023      1
 11024 11023 11024      1
 11025 11023 11025      1
 11026 11023 11026      1
 11027 11024 11027      1
 11028 11024 11028      1
 11029 11024 11029      1
 11030 11029 11030      1
 11031 11029 11031      1
 11032 11029 11032      1
 11033 11030 11033      1
 11034 11030 11034      1
 11035 11030 11035      1
 11036 11035 11036      1
 11037 11035 11037      1
 11038 11035 11038      1
 11039 11036 11039      1
 11040 11036 11040      1
 11041 11036 11041      1
 11042 11041 11042      1
 11043 11041 11043      1
 11044 11041 11044      1
 11045 11042 11045      1
 11046 11042 11046      1
 11047 11042 11047      1
 11048 11047 11048      1
 11049 11047 11049      1
 11050 11047 11050      1
 11051 11048 11051      1
 11052 11048 11052      1
 11053 11048 11053      1
 11054 11053 11054      1
 11055 11053 11055      1
 11056 11053 11056      1
 11057 11054 11057      1
 11058 11054 11058      1
 11059 11054 11059      1
 11060 11059 11060      1
 11061 11059 11061      1
 11062 11059 11062      1
 11063 11060 11063      1
 11064 11060 11064      1
 11065 11060 11065      1
 11066 11065 11066      1
 11067 11065 11067      1
 11068 11065 11068      1
 11069 11066 11069      1
 11070 11066 11070      1
 11071 11066 11071      1
 11072 11071 11072      1
 11073 11071 11073      1
 11074 11071 11074      1
 11075 11072 11075      1
 11076 11072 11076      1
 11077 11072 11077      1
 11078 11077 11078      1
 11079 11077 11079      1
 11080 11077 11080      1
 11081 11078 11081      1
 11082 11078 11082      1
 11083 11078 11083      1
 11084 11083 11084      1
 11085 11083 11085      1
 11086 11083 11086      1
 11087 11084 11087      1
 11088 11084 11088      1
 11089 11084 11089      1
 11090 11089 11090      1
 11091 11089 11091      1
 11092 11089 11092      1
 11093 11090 11093      1
 11094 11090 11094      1
 11095 11090 11095      1
 11096 11095 11096      1
 11097 11095 11097      1
 11098 11095 11098      1
 11099 11096 11099      1
 11100 11096 11100      1
 11101 11096 11101      1
 11102 11101 11102      1
 11103 11101 11103      1
 11104 11101 11104      1
 11105 11102 11105      1
 11106 11102 11106      1
 11107 11102 11107      1
 11108 11107 11108      1
 11109 11107 11109      1
 11110 11107 11110      1
 11111 11108 11111      1
 11112 11108 11112      1
 11113 11108 11113      1
 11114 11113 11114      1
 11115 11113 11115      1
 11116 11113 11116      1
 11117 11114 11117      1
 11118 11114 11118      1
 11119 11114 11119      1
 11120 11119 11120      1
 11121 11119 11121      1
 11122 11119 11122      1
 11123 11120 11123      1
 11124 11120 11124      1
 11125 11120 11125      1
 11126 11125 11126      1
 11127 11125 11127      1
 11128 11125 11128      1
 11129 11126 11129      1
 11130 11126 11130      1
 11131 11126 11131      1
 11132 11131 11132      1
 11133 11131 11133      1
 11134 11131 11134      1
 11135 11132 11135      1
 11136 11132 11136      1
 11137 11132 11137      1
 11138 11137 11138      1
 11139 11137 11139      1
 11140 11137 11140      1
 11141 11138 11141      1
 11142 11138 11142      1
 11143 11138 11143      1
 11144 11143 11144      1
 11145 11143 11145      1
 11146 11143 11146      1
 11147 11144 11147      1
 11148 11144 11148      1
 11149 11144 11149      1
 11150 11149 11150      1
 11151 11149 11151      1
 11152 11149 11152      1
 11153 11150 11153      1
 11154 11150 11154      1
 11155 11150 11155      1
 11156 11155 11156      1
 11157 11155 11157      1
 11158 11155 11158      1
 11159 11156 11159      1
 11160 11156 11160      1
 11161 11156 11161      1
 11162 11161 11162      1
 11163 11161 11163      1
 11164 11161 11164      1
 11165 11162 11165      1
 11166 11162 11166      1
 11167 11162 11167      1
 11168 11167 11168      1
 11169 11167 11169      1
 11170 11167 11170      1
 11171 11168 11171      1
 11172 11168 11172      1
 11173 11168 11173      1
 11174 11173 11174      1
 11175 11173 11175      1
 11176 11173 11176      1
 11177 11174 11177      1
 11178 11174 11178      1
 11179 11174 11179      1
 11180 11179 11180      1
 11181 11179 11181      1
 11182 11179 11182      1
 11183 11180 11183      1
 11184 11180 11184      1
 11185 11180 11185      1
 11186 11185 11186      1
 11187 11185 11187      1
 11188 11185 11188      1
 11189 11186 11189      1
 11190 11186 11190      1
 11191 11186 11191      1
 11192 11191 11192      1
 11193 11191 11193      1
 11194 11191 11194      1
 11195 11192 11195      1
 11196 11192 11196      1
 11197 11192 11197      1
 11198 11197 11198      1
 11199 11197 11199      1
 11200 11197 11200      1
 11201 11198 11201      1
 11202 11198 11202      1
 11203 11198 11203      1
 11204 11203 11204      1
 11205 11203 11205      1
 11206 11203 11206      1
 11207 11204 11207      1
 11208 11204 11208      1
 11209 11204 11209      1
 11210 11209 11210      1
 11211 11209 11211      1
 11212 11209 11212      1
 11213 11210 11213      1
 11214 11210 11214      1
 11215 11210 11215      1
 11216 11215 11216      1
 11217 11215 11217      1
 11218 11215 11218      1
 11219 11216 11219      1
 11220 11216 11220      1
 11221 11216 11221      1
 11222 11221 11222      1
 11223 11221 11223      1
 11224 11221 11224      1
 11225 11222 11225      1
 11226 11222 11226      1
 11227 11222 11227      1
 11228 11227 11228      1
 11229 11227 11229      1
 11230 11227 11230      1
 11231 11228 11231      1
 11232 11228 11232      1
 11233 11228 11233      1
 11234 11233 11234      1
 11235 11233 11235      1
 11236 11233 11236      1
 11237 11234 11237      1
 11238 11234 11238      1
 11239 11234 11239      1
 11240 11239 11240      1
 11241 11239 11241      1
 11242 11239 11242      1
 11243 11240 11243      1
 11244 11240 11244      1
 11245 11240 11245      1
 11246 11245 11246      1
 11247 11245 11247      1
 11248 11245 11248      1
 11249 11246 11249      1
 11250 11246 11250      1
 11251 11246 11251      1
 11252 11251 11252      1
 11253 11251 11253      1
 11254 11251 11254      1
 11255 11252 11255      1
 11256 11252 11256      1
 11257 11252 11257      1
 11258 11257 11258      1
 11259 11257 11259      1
 11260 11257 11260      1
 11261 11258 11261      1
 11262 11258 11262      1
 11263 11258 11263      1
 11264 11263 11264      1
 11265 11263 11265      1
 11266 11263 11266      1
 11267 11264 11267      1
 11268 11264 11268      1
 11269 11264 11269      1
 11270 11269 11270      1
 11271 11269 11271      1
 11272 11269 11272      1
 11273 11270 11273      1
 11274 11270 11274      1
 11275 11270 11275      1
 11276 11275 11276      1
 11277 11275 11277      1
 11278 11275 11278      1
 11279 11276 11279      1
 11280 11276 11280      1
 11281 11276 11281      1
 11282 11281 11282      1
 11283 11281 11283      1
 11284 11281 11284      1
 11285 11282 11285      1
 11286 11282 11286      1
 11287 11282 11287      1
 11288 11287 11288      1
 11289 11287 11289      1
 11290 11287 11290      1
 11291 11288 11291      1
 11292 11288 11292      1
 11293 11288 11293      1
 11294 11293 11294      1
 11295 11293 11295      1
 11296 11293 11296      1
 11297 11294 11297      1
 11298 11294 11298      1
 11299 11294 11299      1
 11300 11299 11300      1
 11301 11299 11301      1
 11302 11299 11302      1
 11303 11300 11303      1
 11304 11300 11304      1
 11305 11300 11305      1
 11306 11305 11306      1
 11307 11305 11307      1
 11308 11305 11308      1
 11309 11306 11309      1
 11310 11306 11310      1
 11311 11306 11311      1
 11312 11311 11312      1
 11313 11311 11313      1
 11314 11311 11314      1
 11315 11312 11315      1
 11316 11312 11316      1
 11317 11312 11317      1
 11318 11317 11318      1
 11319 11317 11319      1
 11320 11317 11320      1
 11321 11318 11321      1
 11322 11318 11322      1
 11323 11318 11323      1
 11324 11323 11324      1
 11325 11323 11325      1
 11326 11323 11326      1
 11327 11324 11327      1
 11328 11324 11328      1
 11329 11324 11329      1
 11330 11329 11330      1
 11331 11329 11331      1
 11332 11329 11332      1
 11333 11330 11333      1
 11334 11330 11334      1
 11335 11330 11335      1
 11336 11335 11336      1
 11337 11335 11337      1
 11338 11335 11338      1
 11339 11336 11339      1
 11340 11336 11340      1
 11341 11336 11341      1
 11342 11341 11342      1
 11343 11341 11343      1
 11344 11341 11344      1
 11345 11342 11345      1
 11346 11342 11346      1
 11347 11342 11347      1
 11348 11347 11348      1
 11349 11347 11349      1
 11350 11347 11350      1
 11351 11348 11351      1
 11352 11348 11352      1
 11353 11348 11353      1
 11354 11353 11354      1
 11355 11353 11355      1
 11356 11353 11356      1
 11357 11354 11357      1
 11358 11354 11358      1
 11359 11354 11359      1
 11360 11359 11360      1
 11361 11359 11361      1
 11362 11359 11362      1
 11363 11360 11363      1
 11364 11360 11364      1
 11365 11360 11365      1
 11366 11365 11366      1
 11367 11365 11367      1
 11368 11365 11368      1
 11369 11366 11369      1
 11370 11366 11370      1
 11371 11366 11371      1
 11372 11371 11372      1
 11373 11371 11373      1
 11374 11371 11374      1
 11375 11372 11375      1
 11376 11372 11376      1
 11377 11372 11377      1
 11378 11377 11378      1
 11379 11377 11379      1
 11380 11377 11380      1
 11381 11378 11381      1
 11382 11378 11382      1
 11383 11378 11383      1
 11384 11383 11384      1
 11385 11383 11385      1
 11386 11383 11386      1
 11387 11384 11387      1
 11388 11384 11388      1
 11389 11384 11389      1
 11390 11389 11390      1
 11391 11389 11391      1
 11392 11389 11392      1
 11393 11390 11393      1
 11394 11390 11394      1
 11395 11390 11395      1
 11396 11395 11396      1
 11397 11395 11397      1
 11398 11395 11398      1
 11399 11396 11399      1
 11400 11396 11400      1
 11401 11396 11401      1
 11402 11401 11402      1
 11403 11401 11403      1
 11404 11401 11404      1
 11405 11402 11405      1
 11406 11402 11406      1
 11407 11402 11407      1
 11408 11407 11408      1
 11409 11407 11409      1
 11410 11407 11410      1
 11411 11408 11411      1
 11412 11408 11412      1
 11413 11408 11413      1
 11414 11413 11414      1
 11415 11413 11415      1
 11416 11413 11416      1
 11417 11414 11417      1
 11418 11414 11418      1
 11419 11414 11419      1
 11420 11419 11420      1
 11421 11419 11421      1
 11422 11419 11422      1
 11423 11420 11423      1
 11424 11420 11424      1
 11425 11420 11425      1
 11426 11425 11426      1
 11427 11425 11427      1
 11428 11425 11428      1
 11429 11426 11429      1
 11430 11426 11430      1
 11431 11426 11431      1
 11432 11431 11432      1
 11433 11431 11433      1
 11434 11431 11434      1
 11435 11432 11435      1
 11436 11432 11436      1
 11437 11432 11437      1
 11438 11437 11438      1
 11439 11437 11439      1
 11440 11437 11440      1
 11441 11438 11441      1
 11442 11438 11442      1
 11443 11438 11443      1
 11444 11443 11444      1
 11445 11443 11445      1
 11446 11443 11446      1
 11447 11444 11447      1
 11448 11444 11448      1
 11449 11444 11449      1
 11450 11449 11450      1
 11451 11449 11451      1
 11452 11449 11452      1
 11453 11450 11453      1
 11454 11450 11454      1
 11455 11450 11455      1
 11456 11455 11456      1
 11457 11455 11457      1
 11458 11455 11458      1
 11459 11456 11459      1
 11460 11456 11460      1
 11461 11456 11461      1
 11462 11461 11462      1
 11463 11461 11463      1
 11464 11461 11464      1
 11465 11462 11465      1
 11466 11462 11466      1
 11467 11462 11467      1
 11468 11467 11468      1
 11469 11467 11469      1
 11470 11467 11470      1
 11471 11468 11471      1
 11472 11468 11472      1
 11473 11468 11473      1
 11474 11473 11474      1
 11475 11473 11475      1
 11476 11473 11476      1
 11477 11474 11477      1
 11478 11474 11478      1
 11479 11474 11479      1
 11480 11479 11480      1
 11481 11479 11481      1
 11482 11479 11482      1
 11483 11480 11483      1
 11484 11480 11484      1
 11485 11480 11485      1
 11486 11485 11486      1
 11487 11485 11487      1
 11488 11485 11488      1
 11489 11486 11489      1
 11490 11486 11490      1
 11491 11486 11491      1
 11492 11491 11492      1
 11493 11491 11493      1
 11494 11491 11494      1
 11495 11492 11495      1
 11496 11492 11496      1
 11497 11492 11497      1
 11498 11497 11498      1
 11499 11497 11499      1
 11500 11497 11500      1
 11501 11498 11501      1
 11502 11498 11502      1
 11503 11498 11503      1
 11504 11503 11504      1
 11505 11503 11505      1
 11506 11503 11506      1
 11507 11504 11507      1
 11508 11504 11508      1
 11509 11504 11509      1
 11510 11509 11510      1
 11511 11509 11511      1
 11512 11509 11512      1
 11513 11510 11513      1
 11514 11510 11514      1
 11515 11510 11515      1
 11516 11515 11516      1
 11517 11515 11517      1
 11518 11515 11518      1
 11519 11516 11519      1
 11520 11516 11520      1
 11521 11516 11521      1
 11522 11521 11522      1
 11523 11521 11523      1
 11524 11521 11524      1
 11525 11522 11525      1
 11526 11522 11526      1
 11527 11522 11527      1
 11528 11527 11528      1
 11529 11527 11529      1
 11530 11527 11530      1
 11531 11528 11531      1
 11532 11528 11532      1
 11533 11528 11533      1
 11534 11533 11534      1
 11535 11533 11535      1
 11536 11533 11536      1
 11537 11534 11537      1
 11538 11534 11538      1
 11539 11534 11539      1
 11540 11539 11540      1
 11541 11539 11541      1
 11542 11539 11542      1
 11543 11540 11543      1
 11544 11540 11544      1
 11545 11540 11545      1
 11546 11545 11546      1
 11547 11545 11547      1
 11548 11545 11548      1
 11549 11546 11549      1
 11550 11546 11550      1
 11551 11546 11551      1
 11552 11551 11552      1
 11553 11551 11553      1
 11554 11551 11554      1
 11555 11552 11555      1
 11556 11552 11556      1
 11557 11552 11557      1
 11558 11557 11558      1
 11559 11557 11559      1
 11560 11557 11560      1
 11561 11558 11561      1
 11562 11558 11562      1
 11563 11558 11563      1
 11564 11563 11564      1
 11565 11563 11565      1
 11566 11563 11566      1
 11567 11564 11567      1
 11568 11564 11568      1
 11569 11564 11569      1
 11570 11569 11570      1
 11571 11569 11571      1
 11572 11569 11572      1
 11573 11570 11573      1
 11574 11570 11574      1
 11575 11570 11575      1
 11576 11575 11576      1
 11577 11575 11577      1
 11578 11575 11578      1
 11579 11576 11579      1
 11580 11576 11580      1
 11581 11576 11581      1
 11582 11581 11582      1
 11583 11581 11583      1
 11584 11581 11584      1
 11585 11582 11585      1
 11586 11582 11586      1
 11587 11582 11587      1
 11588 11587 11588      1
 11589 11587 11589      1
 11590 11587 11590      1
 11591 11588 11591      1
 11592 11588 11592      1
 11593 11588 11593      1
 11594 11593 11594      1
 11595 11593 11595      1
 11596 11593 11596      1
 11597 11594 11597      1
 11598 11594 11598      1
 11599 11594 11599      1
 11600 11599 11600      1
 11601 11599 11601      1
 11602 11599 11602      1
 11603 11600 11603      1
 11604 11600 11604      1
 11605 11600 11605      1
 11606 11605 11606      1
 11607 11605 11607      1
 11608 11605 11608      1
 11609 11606 11609      1
 11610 11606 11610      1
 11611 11606 11611      1
 11612 11611 11612      1
 11613 11611 11613      1
 11614 11611 11614      1
 11615 11612 11615      1
 11616 11612 11616      1
 11617 11612 11617      1
 11618 11617 11618      1
 11619 11617 11619      1
 11620 11617 11620      1
 11621 11618 11621      1
 11622 11618 11622      1
 11623 11618 11623      1
 11624 11623 11624      1
 11625 11623 11625      1
 11626 11623 11626      1
 11627 11624 11627      1
 11628 11624 11628      1
 11629 11624 11629      1
 11630 11629 11630      1
 11631 11629 11631      1
 11632 11629 11632      1
 11633 11630 11633      1
 11634 11630 11634      1
 11635 11630 11635      1
 11636 11635 11636      1
 11637 11635 11637      1
 11638 11635 11638      1
 11639 11636 11639      1
 11640 11636 11640      1
 11641 11636 11641      1
 11642 11641 11642      1
 11643 11641 11643      1
 11644 11641 11644      1
 11645 11642 11645      1
 11646 11642 11646      1
 11647 11642 11647      1
 11648 11647 11648      1
 11649 11647 11649      1
 11650 11647 11650      1
 11651 11648 11651      1
 11652 11648 11652      1
 11653 11648 11653      1
 11654 11653 11654      1
 11655 11653 11655      1
 11656 11653 11656      1
 11657 11654 11657      1
 11658 11654 11658      1
 11659 11654 11659      1
 11660 11659 11660      1
 11661 11659 11661      1
 11662 11659 11662      1
 11663 11660 11663      1
 11664 11660 11664      1
 11665 11660 11665      1
 11666 11665 11666      1
 11667 11665 11667      1
 11668 11665 11668      1
 11669 11666 11669      1
 11670 11666 11670      1
 11671 11666 11671      1
 11672 11671 11672      1
 11673 11671 11673      1
 11674 11671 11674      1
 11675 11672 11675      1
 11676 11672 11676      1
 11677 11672 11677      1
 11678 11677 11678      1
 11679 11677 11679      1
 11680 11677 11680      1
 11681 11678 11681      1
 11682 11678 11682      1
 11683 11678 11683      1
 11684 11683 11684      1
 11685 11683 11685      1
 11686 11683 11686      1
 11687 11684 11687      1
 11688 11684 11688      1
 11689 11684 11689      1
 11690 11689 11690      1
 11691 11689 11691      1
 11692 11689 11692      1
 11693 11690 11693      1
 11694 11690 11694      1
 11695 11690 11695      1
 11696 11695 11696      1
 11697 11695 11697      1
 11698 11695 11698      1
 11699 11696 11699      1
 11700 11696 11700      1
 11701 11696 11701      1
 11702 11701 11702      1
 11703 11701 11703      1
 11704 11701 11704      1
 11705 11702 11705      1
 11706 11702 11706      1
 11707 11702 11707      1
 11708 11707 11708      1
 11709 11707 11709      1
 11710 11707 11710      1
 11711 11708 11711      1
 11712 11708 11712      1
 11713 11708 11713      1
 11714 11713 11714      1
 11715 11713 11715      1
 11716 11713 11716      1
 11717 11714 11717      1
 11718 11714 11718      1
 11719 11714 11719      1
 11720 11719 11720      1
 11721 11719 11721      1
 11722 11719 11722      1
 11723 11720 11723      1
 11724 11720 11724      1
 11725 11720 11725      1
 11726 11725 11726      1
 11727 11725 11727      1
 11728 11725 11728      1
 11729 11726 11729      1
 11730 11726 11730      1
 11731 11726 11731      1
 11732 11731 11732      1
 11733 11731 11733      1
 11734 11731 11734      1
 11735 11732 11735      1
 11736 11732 11736      1
 11737 11732 11737      1
 11738 11737 11738      1
 11739 11737 11739      1
 11740 11737 11740      1
 11741 11738 11741      1
 11742 11738 11742      1
 11743 11738 11743      1
 11744 11743 11744      1
 11745 11743 11745      1
 11746 11743 11746      1
 11747 11744 11747      1
 11748 11744 11748      1
 11749 11744 11749      1
 11750 11749 11750      1
 11751 11749 11751      1
 11752 11749 11752      1
 11753 11750 11753      1
 11754 11750 11754      1
 11755 11750 11755      1
 11756 11755 11756      1
 11757 11755 11757      1
 11758 11755 11758      1
 11759 11756 11759      1
 11760 11756 11760      1
 11761 11756 11761      1
 11762 11761 11762      1
 11763 11761 11763      1
 11764 11761 11764      1
 11765 11762 11765      1
 11766 11762 11766      1
 11767 11762 11767      1
 11768 11767 11768      1
 11769 11767 11769      1
 11770 11767 11770      1
 11771 11768 11771      1
 11772 11768 11772      1
 11773 11768 11773      1
 11774 11773 11774      1
 11775 11773 11775      1
 11776 11773 11776      1
 11777 11774 11777      1
 11778 11774 11778      1
 11779 11774 11779      1
 11780 11779 11780      1
 11781 11779 11781      1
 11782 11779 11782      1
 11783 11780 11783      1
 11784 11780 11784      1
 11785 11780 11785      1
 11786 11785 11786      1
 11787 11785 11787      1
 11788 11785 11788      1
 11789 11786 11789      1
 11790 11786 11790      1
 11791 11786 11791      1
 11792 11791 11792      1
 11793 11791 11793      1
 11794 11791 11794      1
 11795 11792 11795      1
 11796 11792 11796      1
 11797 11792 11797      1
 11798 11797 11798      1
 11799 11797 11799      1
 11800 11797 11800      1
 11801 11798 11801      1
 11802 11798 11802      1
 11803 11798 11803      1
 11804 11803 11804      1
 11805 11803 11805      1
 11806 11803 11806      1
 11807 11804 11807      1
 11808 11804 11808      1
 11809 11804 11809      1
 11810 11809 11810      1
 11811 11809 11811      1
 11812 11809 11812      1
 11813 11810 11813      1
 11814 11810 11814      1
 11815 11810 11815      1
 11816 11815 11816      1
 11817 11815 11817      1
 11818 11815 11818      1
 11819 11816 11819      1
 11820 11816 11820      1
 11821 11816 11821      1
 11822 11821 11822      1
 11823 11821 11823      1
 11824 11821 11824      1
 11825 11822 11825      1
 11826 11822 11826      1
 11827 11822 11827      1
 11828 11827 11828      1
 11829 11827 11829      1
 11830 11827 11830      1
 11831 11828 11831      1
 11832 11828 11832      1
 11833 11828 11833      1
 11834 11833 11834      1
 11835 11833 11835      1
 11836 11833 11836      1
 11837 11834 11837      1
 11838 11834 11838      1
 11839 11834 11839      1
 11840 11839 11840      1
 11841 11839 11841      1
 11842 11839 11842      1
 11843 11840 11843      1
 11844 11840 11844      1
 11845 11840 11845      1
 11846 11845 11846      1
 11847 11845 11847      1
 11848 11845 11848      1
 11849 11846 11849      1
 11850 11846 11850      1
 11851 11846 11851      1
 11852 11851 11852      1
 11853 11851 11853      1
 11854 11851 11854      1
 11855 11852 11855      1
 11856 11852 11856      1
 11857 11852 11857      1
 11858 11857 11858      1
 11859 11857 11859      1
 11860 11857 11860      1
 11861 11858 11861      1
 11862 11858 11862      1
 11863 11858 11863      1
 11864 11863 11864      1
 11865 11863 11865      1
 11866 11863 11866      1
 11867 11864 11867      1
 11868 11864 11868      1
 11869 11864 11869      1
 11870 11869 11870      1
 11871 11869 11871      1
 11872 11869 11872      1
 11873 11870 11873      1
 11874 11870 11874      1
 11875 11870 11875      1
 11876 11875 11876      1
 11877 11875 11877      1
 11878 11875 11878      1
 11879 11876 11879      1
 11880 11876 11880      1
 11881 11876 11881      1
 11882 11881 11882      1
 11883 11881 11883      1
 11884 11881 11884      1
 11885 11882 11885      1
 11886 11882 11886      1
 11887 11882 11887      1
 11888 11887 11888      1
 11889 11887 11889      1
 11890 11887 11890      1
 11891 11888 11891      1
 11892 11888 11892      1
 11893 11888 11893      1
 11894 11893 11894      1
 11895 11893 11895      1
 11896 11893 11896      1
 11897 11894 11897      1
 11898 11894 11898      1
 11899 11894 11899      1
 11900 11899 11900      1
 11901 11899 11901      1
 11902 11899 11902      1
 11903 11900 11903      1
 11904 11900 11904      1
 11905 11900 11905      1
 11906 11905 11906      1
 11907 11905 11907      1
 11908 11905 11908      1
 11909 11906 11909      1
 11910 11906 11910      1
 11911 11906 11911      1
 11912 11911 11912      1
 11913 11911 11913      1
 11914 11911 11914      1
 11915 11912 11915      1
 11916 11912 11916      1
 11917 11912 11917      1
 11918 11917 11918      1
 11919 11917 11919      1
 11920 11917 11920      1
 11921 11918 11921      1
 11922 11918 11922      1
 11923 11918 11923      1
 11924 11923 11924      1
 11925 11923 11925      1
 11926 11923 11926      1
 11927 11924 11927      1
 11928 11924 11928      1
 11929 11924 11929      1
 11930 11929 11930      1
 11931 11929 11931      1
 11932 11929 11932      1
 11933 11930 11933      1
 11934 11930 11934      1
 11935 11930 11935      1
 11936 11935 11936      1
 11937 11935 11937      1
 11938 11935 11938      1
 11939 11936 11939      1
 11940 11936 11940      1
 11941 11936 11941      1
 11942 11941 11942      1
 11943 11941 11943      1
 11944 11941 11944      1
 11945 11942 11945      1
 11946 11942 11946      1
 11947 11942 11947      1
 11948 11947 11948      1
 11949 11947 11949      1
 11950 11947 11950      1
 11951 11948 11951      1
 11952 11948 11952      1
 11953 11948 11953      1
 11954 11953 11954      1
 11955 11953 11955      1
 11956 11953 11956      1
 11957 11954 11957      1
 11958 11954 11958      1
 11959 11954 11959      1
 11960 11959 11960      1
 11961 11959 11961      1
 11962 11959 11962      1
 11963 11960 11963      1
 11964 11960 11964      1
 11965 11960 11965      1
 11966 11965 11966      1
 11967 11965 11967      1
 11968 11965 11968      1
 11969 11966 11969      1
 11970 11966 11970      1
 11971 11966 11971      1
 11972 11971 11972      1
 11973 11971 11973      1
 11974 11971 11974      1
 11975 11972 11975      1
 11976 11972 11976      1
 11977 11972 11977      1
 11978 11977 11978      1
 11979 11977 11979      1
 11980 11977 11980      1
 11981 11978 11981      1
 11982 11978 11982      1
 11983 11978 11983      1
 11984 11983 11984      1
 11985 11983 11985      1
 11986 11983 11986      1
 11987 11984 11987      1
 11988 11984 11988      1
 11989 11984 11989      1
 11990 11989 11990      1
 11991 11989 11991      1
 11992 11989 11992      1
 11993 11990 11993      1
 11994 11990 11994      1
 11995 11990 11995      1
 11996 11995 11996      1
 11997 11995 11997      1
 11998 11995 11998      1
 11999 11996 11999      1
 12000 11996 12000      1
 12001 11996 12001      1
 12002 12001 12002      1
 12003 12001 12003      1
 12004 12001 12004      1
 12005 12002 12005      1
 12006 12002 12006      1
 12007 12002 12007      1
 12008 12007 12008      1
 12009 12007 12009      1
 12010 12007 12010      1
 12011 12008 12011      1
 12012 12008 12012      1
 12013 12008 12013      1
 12014 12013 12014      1
 12015 12013 12015      1
 12016 12013 12016      1
 12017 12014 12017      1
 12018 12014 12018      1
 12019 12014 12019      1
 12020 12019 12020      1
 12021 12019 12021      1
 12022 12019 12022      1
 12023 12020 12023      1
 12024 12020 12024      1
 12025 12020 12025      1
 12026 12025 12026      1
 12027 12025 12027      1
 12028 12025 12028      1
 12029 12026 12029      1
 12030 12026 12030      1
 12031 12026 12031      1
 12032 12031 12032      1
 12033 12031 12033      1
 12034 12031 12034      1
 12035 12032 12035      1
 12036 12032 12036      1
 12037 12032 12037      1
 12038 12037 12038      1
 12039 12037 12039      1
 12040 12037 12040      1
 12041 12038 12041      1
 12042 12038 12042      1
 12043 12038 12043      1
 12044 12043 12044      1
 12045 12043 12045      1
 12046 12043 12046      1
 12047 12044 12047      1
 12048 12044 12048      1
 12049 12044 12049      1
 12050 12049 12050      1
 12051 12049 12051      1
 12052 12049 12052      1
 12053 12050 12053      1
 12054 12050 12054      1
 12055 12050 12055      1
 12056 12055 12056      1
 12057 12055 12057      1
 12058 12055 12058      1
 12059 12056 12059      1
 12060 12056 12060      1
 12061 12056 12061      1
 12062 12061 12062      1
 12063 12061 12063      1
 12064 12061 12064      1
 12065 12062 12065      1
 12066 12062 12066      1
 12067 12062 12067      1
 12068 12067 12068      1
 12069 12067 12069      1
 12070 12067 12070      1
 12071 12068 12071      1
 12072 12068 12072      1
 12073 12068 12073      1
 12074 12073 12074      1
 12075 12073 12075      1
 12076 12073 12076      1
 12077 12074 12077      1
 12078 12074 12078      1
 12079 12074 12079      1
 12080 12079 12080      1
 12081 12079 12081      1
 12082 12079 12082      1
 12083 12080 12083      1
 12084 12080 12084      1
 12085 12080 12085      1
 12086 12085 12086      1
 12087 12085 12087      1
 12088 12085 12088      1
 12089 12086 12089      1
 12090 12086 12090      1
 12091 12086 12091      1
 12092 12091 12092      1
 12093 12091 12093      1
 12094 12091 12094      1
 12095 12092 12095      1
 12096 12092 12096      1
 12097 12092 12097      1
 12098 12097 12098      1
 12099 12097 12099      1
 12100 12097 12100      1
 12101 12098 12101      1
 12102 12098 12102      1
 12103 12098 12103      1
 12104 12103 12104      1
 12105 12103 12105      1
 12106 12103 12106      1
 12107 12104 12107      1
 12108 12104 12108      1
 12109 12104 12109      1
 12110 12109 12110      1
 12111 12109 12111      1
 12112 12109 12112      1
 12113 12110 12113      1
 12114 12110 12114      1
 12115 12110 12115      1
 12116 12115 12116      1
 12117 12115 12117      1
 12118 12115 12118      1
 12119 12116 12119      1
 12120 12116 12120      1
 12121 12116 12121      1
 12122 12121 12122      1
 12123 12121 12123      1
 12124 12121 12124      1
 12125 12122 12125      1
 12126 12122 12126      1
 12127 12122 12127      1
 12128 12127 12128      1
 12129 12127 12129      1
 12130 12127 12130      1
 12131 12128 12131      1
 12132 12128 12132      1
 12133 12128 12133      1
 12134 12133 12134      1
 12135 12133 12135      1
 12136 12133 12136      1
 12137 12134 12137      1
 12138 12134 12138      1
 12139 12134 12139      1
 12140 12139 12140      1
 12141 12139 12141      1
 12142 12139 12142      1
 12143 12140 12143      1
 12144 12140 12144      1
 12145 12140 12145      1
 12146 12145 12146      1
 12147 12145 12147      1
 12148 12145 12148      1
 12149 12146 12149      1
 12150 12146 12150      1
 12151 12146 12151      1
 12152 12151 12152      1
 12153 12151 12153      1
 12154 12151 12154      1
 12155 12152 12155      1
 12156 12152 12156      1
 12157 12152 12157      1
 12158 12157 12158      1
 12159 12157 12159      1
 12160 12157 12160      1
 12161 12158 12161      1
 12162 12158 12162      1
 12163 12158 12163      1
 12164 12163 12164      1
 12165 12163 12165      1
 12166 12163 12166      1
 12167 12164 12167      1
 12168 12164 12168      1
 12169 12164 12169      1
 12170 12169 12170      1
 12171 12169 12171      1
 12172 12169 12172      1
 12173 12170 12173      1
 12174 12170 12174      1
 12175 12170 12175      1
 12176 12175 12176      1
 12177 12175 12177      1
 12178 12175 12178      1
 12179 12176 12179      1
 12180 12176 12180      1
 12181 12176 12181      1
 12182 12181 12182      1
 12183 12181 12183      1
 12184 12181 12184      1
 12185 12182 12185      1
 12186 12182 12186      1
 12187 12182 12187      1
 12188 12187 12188      1
 12189 12187 12189      1
 12190 12187 12190      1
 12191 12188 12191      1
 12192 12188 12192      1
 12193 12188 12193      1
 12194 12193 12194      1
 12195 12193 12195      1
 12196 12193 12196      1
 12197 12194 12197      1
 12198 12194 12198      1
 12199 12194 12199      1
 12200 12199 12200      1
 12201 12199 12201      1
 12202 12199 12202      1
 12203 12200 12203      1
 12204 12200 12204      1
 12205 12200 12205      1
 12206 12205 12206      1
 12207 12205 12207      1
 12208 12205 12208      1
 12209 12206 12209      1
 12210 12206 12210      1
 12211 12206 12211      1
 12212 12211 12212      1
 12213 12211 12213      1
 12214 12211 12214      1
 12215 12212 12215      1
 12216 12212 12216      1
 12217 12212 12217      1
 12218 12217 12218      1
 12219 12217 12219      1
 12220 12217 12220      1
 12221 12218 12221      1
 12222 12218 12222      1
 12223 12218 12223      1
 12224 12223 12224      1
 12225 12223 12225      1
 12226 12223 12226      1
 12227 12224 12227      1
 12228 12224 12228      1
 12229 12224 12229      1
 12230 12229 12230      1
 12231 12229 12231      1
 12232 12229 12232      1
 12233 12230 12233      1
 12234 12230 12234      1
 12235 12230 12235      1
 12236 12235 12236      1
 12237 12235 12237      1
 12238 12235 12238      1
 12239 12236 12239      1
 12240 12236 12240      1
 12241 12236 12241      1
 12242 12241 12242      1
 12243 12241 12243      1
 12244 12241 12244      1
 12245 12242 12245      1
 12246 12242 12246      1
 12247 12242 12247      1
 12248 12247 12248      1
 12249 12247 12249      1
 12250 12247 12250      1
 12251 12248 12251      1
 12252 12248 12252      1
 12253 12248 12253      1
 12254 12253 12254      1
 12255 12253 12255      1
 12256 12253 12256      1
 12257 12254 12257      1
 12258 12254 12258      1
 12259 12254 12259      1
 12260 12259 12260      1
 12261 12259 12261      1
 12262 12259 12262      1
 12263 12260 12263      1
 12264 12260 12264      1
 12265 12260 12265      1
 12266 12265 12266      1
 12267 12265 12267      1
 12268 12265 12268      1
 12269 12266 12269      1
 12270 12266 12270      1
 12271 12266 12271      1
 12272 12271 12272      1
 12273 12271 12273      1
 12274 12271 12274      1
 12275 12272 12275      1
 12276 12272 12276      1
 12277 12272 12277      1
 12278 12277 12278      1
 12279 12277 12279      1
 12280 12277 12280      1
 12281 12278 12281      1
 12282 12278 12282      1
 12283 12278 12283      1
 12284 12283 12284      1
 12285 12283 12285      1
 12286 12283 12286      1
 12287 12284 12287      1
 12288 12284 12288      1
 12289 12284 12289      1
 12290 12289 12290      1
 12291 12289 12291      1
 12292 12289 12292      1
 12293 12290 12293      1
 12294 12290 12294      1
 12295 12290 12295      1
 12296 12295 12296      1
 12297 12295 12297      1
 12298 12295 12298      1
 12299 12296 12299      1
 12300 12296 12300      1
 12301 12296 12301      1
 12302 12301 12302      1
 12303 12301 12303      1
 12304 12301 12304      1
 12305 12302 12305      1
 12306 12302 12306      1
 12307 12302 12307      1
 12308 12307 12308      1
 12309 12307 12309      1
 12310 12307 12310      1
 12311 12308 12311      1
 12312 12308 12312      1
 12313 12308 12313      1
 12314 12313 12314      1
 12315 12313 12315      1
 12316 12313 12316      1
 12317 12314 12317      1
 12318 12314 12318      1
 12319 12314 12319      1
 12320 12319 12320      1
 12321 12319 12321      1
 12322 12319 12322      1
 12323 12320 12323      1
 12324 12320 12324      1
 12325 12320 12325      1
 12326 12325 12326      1
 12327 12325 12327      1
 12328 12325 12328      1
 12329 12326 12329      1
 12330 12326 12330      1
 12331 12326 12331      1
 12332 12331 12332      1
 12333 12331 12333      1
 12334 12331 12334      1
 12335 12332 12335      1
 12336 12332 12336      1
 12337 12332 12337      1
 12338 12337 12338      1
 12339 12337 12339      1
 12340 12337 12340      1
 12341 12338 12341      1
 12342 12338 12342      1
 12343 12338 12343      1
 12344 12343 12344      1
 12345 12343 12345      1
 12346 12343 12346      1
 12347 12344 12347      1
 12348 12344 12348      1
 12349 12344 12349      1
 12350 12349 12350      1
 12351 12349 12351      1
 12352 12349 12352      1
 12353 12350 12353      1
 12354 12350 12354      1
 12355 12350 12355      1
 12356 12355 12356      1
 12357 12355 12357      1
 12358 12355 12358      1
 12359 12356 12359      1
 12360 12356 12360      1
 12361 12356 12361      1
 12362 12361 12362      1
 12363 12361 12363      1
 12364 12361 12364      1
 12365 12362 12365      1
 12366 12362 12366      1
 12367 12362 12367      1
 12368 12367 12368      1
 12369 12367 12369      1
 12370 12367 12370      1
 12371 12368 12371      1
 12372 12368 12372      1
 12373 12368 12373      1
 12374 12373 12374      1
 12375 12373 12375      1
 12376 12373 12376      1
 12377 12374 12377      1
 12378 12374 12378      1
 12379 12374 12379      1
 12380 12379 12380      1
 12381 12379 12381      1
 12382 12379 12382      1
 12383 12380 12383      1
 12384 12380 12384      1
 12385 12380 12385      1
 12386 12385 12386      1
 12387 12385 12387      1
 12388 12385 12388      1
 12389 12386 12389      1
 12390 12386 12390      1
 12391 12386 12391      1
 12392 12391 12392      1
 12393 12391 12393      1
 12394 12391 12394      1
 12395 12392 12395      1
 12396 12392 12396      1
 12397 12392 12397      1
 12398 12397 12398      1
 12399 12397 12399      1
 12400 12397 12400      1
 12401 12398 12401      1
 12402 12398 12402      1
 12403 12398 12403      1
 12404 12403 12404      1
 12405 12403 12405      1
 12406 12403 12406      1
 12407 12404 12407      1
 12408 12404 12408      1
 12409 12404 12409      1
 12410 12409 12410      1
 12411 12409 12411      1
 12412 12409 12412      1
 12413 12410 12413      1
 12414 12410 12414      1
 12415 12410 12415      1
 12416 12415 12416      1
 12417 12415 12417      1
 12418 12415 12418      1
 12419 12416 12419      1
 12420 12416 12420      1
 12421 12416 12421      1
 12422 12421 12422      1
 12423 12421 12423      1
 12424 12421 12424      1
 12425 12422 12425      1
 12426 12422 12426      1
 12427 12422 12427      1
 12428 12427 12428      1
 12429 12427 12429      1
 12430 12427 12430      1
 12431 12428 12431      1
 12432 12428 12432      1
 12433 12428 12433      1
 12434 12433 12434      1
 12435 12433 12435      1
 12436 12433 12436      1
 12437 12434 12437      1
 12438 12434 12438      1
 12439 12434 12439      1
 12440 12439 12440      1
 12441 12439 12441      1
 12442 12439 12442      1
 12443 12440 12443      1
 12444 12440 12444      1
 12445 12440 12445      1
 12446 12445 12446      1
 12447 12445 12447      1
 12448 12445 12448      1
 12449 12446 12449      1
 12450 12446 12450      1
 12451 12446 12451      1
 12452 12451 12452      1
 12453 12451 12453      1
 12454 12451 12454      1
 12455 12452 12455      1
 12456 12452 12456      1
 12457 12452 12457      1
 12458 12457 12458      1
 12459 12457 12459      1
 12460 12457 12460      1
 12461 12458 12461      1
 12462 12458 12462      1
 12463 12458 12463      1
 12464 12463 12464      1
 12465 12463 12465      1
 12466 12463 12466      1
 12467 12464 12467      1
 12468 12464 12468      1
 12469 12464 12469      1
 12470 12469 12470      1
 12471 12469 12471      1
 12472 12469 12472      1
 12473 12470 12473      1
 12474 12470 12474      1
 12475 12470 12475      1
 12476 12475 12476      1
 12477 12475 12477      1
 12478 12475 12478      1
 12479 12476 12479      1
 12480 12476 12480      1
 12481 12476 12481      1
 12482 12481 12482      1
 12483 12481 12483      1
 12484 12481 12484      1
 12485 12482 12485      1
 12486 12482 12486      1
 12487 12482 12487      1
 12488 12487 12488      1
 12489 12487 12489      1
 12490 12487 12490      1
 12491 12488 12491      1
 12492 12488 12492      1
 12493 12488 12493      1
 12494 12493 12494      1
 12495 12493 12495      1
 12496 12493 12496      1
 12497 12494 12497      1
 12498 12494 12498      1
 12499 12494 12499      1
 12500 12499 12500      1
 12501 12499 12501      1
 12502 12499 12502      1
 12503 12500 12503      1
 12504 12500 12504      1
 12505 12500 12505      1
 12506 12505 12506      1
 12507 12505 12507      1
 12508 12505 12508      1
 12509 12506 12509      1
 12510 12506 12510      1
 12511 12506 12511      1
 12512 12511 12512      1
 12513 12511 12513      1
 12514 12511 12514      1
 12515 12512 12515      1
 12516 12512 12516      1
 12517 12512 12517      1
 12518 12517 12518      1
 12519 12517 12519      1
 12520 12517 12520      1
 12521 12518 12521      1
 12522 12518 12522      1
 12523 12518 12523      1
 12524 12523 12524      1
 12525 12523 12525      1
 12526 12523 12526      1
 12527 12524 12527      1
 12528 12524 12528      1
 12529 12524 12529      1
 12530 12529 12530      1
 12531 12529 12531      1
 12532 12529 12532      1
 12533 12530 12533      1
 12534 12530 12534      1
 12535 12530 12535      1
 12536 12535 12536      1
 12537 12535 12537      1
 12538 12535 12538      1
 12539 12536 12539      1
 12540 12536 12540      1
 12541 12536 12541      1
 12542 12541 12542      1
 12543 12541 12543      1
 12544 12541 12544      1
 12545 12542 12545      1
 12546 12542 12546      1
 12547 12542 12547      1
 12548 12547 12548      1
 12549 12547 12549      1
 12550 12547 12550      1
 12551 12548 12551      1
 12552 12548 12552      1
 12553 12548 12553      1
 12554 12553 12554      1
 12555 12553 12555      1
 12556 12553 12556      1
 12557 12554 12557      1
 12558 12554 12558      1
 12559 12554 12559      1
 12560 12559 12560      1
 12561 12559 12561      1
 12562 12559 12562      1
 12563 12560 12563      1
 12564 12560 12564      1
 12565 12560 12565      1
 12566 12565 12566      1
 12567 12565 12567      1
 12568 12565 12568      1
 12569 12566 12569      1
 12570 12566 12570      1
 12571 12566 12571      1
 12572 12571 12572      1
 12573 12571 12573      1
 12574 12571 12574      1
 12575 12572 12575      1
 12576 12572 12576      1
 12577 12572 12577      1
 12578 12577 12578      1
 12579 12577 12579      1
 12580 12577 12580      1
 12581 12578 12581      1
 12582 12578 12582      1
 12583 12578 12583      1
 12584 12583 12584      1
 12585 12583 12585      1
 12586 12583 12586      1
 12587 12584 12587      1
 12588 12584 12588      1
 12589 12584 12589      1
 12590 12589 12590      1
 12591 12589 12591      1
 12592 12589 12592      1
 12593 12590 12593      1
 12594 12590 12594      1
 12595 12590 12595      1
 12596 12595 12596      1
 12597 12595 12597      1
 12598 12595 12598      1
 12599 12596 12599      1
 12600 12596 12600      1
 12601 12596 12601      1
 12602 12601 12602      1
 12603 12601 12603      1
 12604 12601 12604      1
 12605 12602 12605      1
 12606 12602 12606      1
 12607 12602 12607      1
 12608 12607 12608      1
 12609 12607 12609      1
 12610 12607 12610      1
 12611 12608 12611      1
 12612 12608 12612      1
 12613 12608 12613      1
 12614 12613 12614      1
 12615 12613 12615      1
 12616 12613 12616      1
 12617 12614 12617      1
 12618 12614 12618      1
 12619 12614 12619      1
 12620 12619 12620      1
 12621 12619 12621      1
 12622 12619 12622      1
 12623 12620 12623      1
 12624 12620 12624      1
 12625 12620 12625      1
 12626 12625 12626      1
 12627 12625 12627      1
 12628 12625 12628      1
 12629 12626 12629      1
 12630 12626 12630      1
 12631 12626 12631      1
 12632 12631 12632      1
 12633 12631 12633      1
 12634 12631 12634      1
 12635 12632 12635      1
 12636 12632 12636      1
 12637 12632 12637      1
 12638 12637 12638      1
 12639 12637 12639      1
 12640 12637 12640      1
 12641 12638 12641      1
 12642 12638 12642      1
 12643 12638 12643      1
 12644 12643 12644      1
 12645 12643 12645      1
 12646 12643 12646      1
 12647 12644 12647      1
 12648 12644 12648      1
 12649 12644 12649      1
 12650 12649 12650      1
 12651 12649 12651      1
 12652 12649 12652      1
 12653 12650 12653      1
 12654 12650 12654      1
 12655 12650 12655      1
 12656 12655 12656      1
 12657 12655 12657      1
 12658 12655 12658      1
 12659 12656 12659      1
 12660 12656 12660      1
 12661 12656 12661      1
 12662 12661 12662      1
 12663 12661 12663      1
 12664 12661 12664      1
 12665 12662 12665      1
 12666 12662 12666      1
 12667 12662 12667      1
 12668 12667 12668      1
 12669 12667 12669      1
 12670 12667 12670      1
 12671 12668 12671      1
 12672 12668 12672      1
 12673 12668 12673      1
 12674 12673 12674      1
 12675 12673 12675      1
 12676 12673 12676      1
 12677 12674 12677      1
 12678 12674 12678      1
 12679 12674 12679      1
 12680 12679 12680      1
 12681 12679 12681      1
 12682 12679 12682      1
 12683 12680 12683      1
 12684 12680 12684      1
 12685 12680 12685      1
 12686 12685 12686      1
 12687 12685 12687      1
 12688 12685 12688      1
 12689 12686 12689      1
 12690 12686 12690      1
 12691 12686 12691      1
 12692 12691 12692      1
 12693 12691 12693      1
 12694 12691 12694      1
 12695 12692 12695      1
 12696 12692 12696      1
 12697 12692 12697      1
 12698 12697 12698      1
 12699 12697 12699      1
 12700 12697 12700      1
 12701 12698 12701      1
 12702 12698 12702      1
 12703 12698 12703      1
 12704 12703 12704      1
 12705 12703 12705      1
 12706 12703 12706      1
 12707 12704 12707      1
 12708 12704 12708      1
 12709 12704 12709      1
 12710 12709 12710      1
 12711 12709 12711      1
 12712 12709 12712      1
 12713 12710 12713      1
 12714 12710 12714      1
 12715 12710 12715      1
 12716 12715 12716      1
 12717 12715 12717      1
 12718 12715 12718      1
 12719 12716 12719      1
 12720 12716 12720      1
 12721 12716 12721      1
 12722 12721 12722      1
 12723 12721 12723      1
 12724 12721 12724      1
 12725 12722 12725      1
 12726 12722 12726      1
 12727 12722 12727      1
 12728 12727 12728      1
 12729 12727 12729      1
 12730 12727 12730      1
 12731 12728 12731      1
 12732 12728 12732      1
 12733 12728 12733      1
 12734 12733 12734      1
 12735 12733 12735      1
 12736 12733 12736      1
 12737 12734 12737      1
 12738 12734 12738      1
 12739 12734 12739      1
 12740 12739 12740      1
 12741 12739 12741      1
 12742 12739 12742      1
 12743 12740 12743      1
 12744 12740 12744      1
 12745 12740 12745      1
 12746 12745 12746      1
 12747 12745 12747      1
 12748 12745 12748      1
 12749 12746 12749      1
 12750 12746 12750      1
 12751 12746 12751      1
 12752 12751 12752      1
 12753 12751 12753      1
 12754 12751 12754      1
 12755 12752 12755      1
 12756 12752 12756      1
 12757 12752 12757      1
 12758 12757 12758      1
 12759 12757 12759      1
 12760 12757 12760      1
 12761 12758 12761      1
 12762 12758 12762      1
 12763 12758 12763      1
 12764 12763 12764      1
 12765 12763 12765      1
 12766 12763 12766      1
 12767 12764 12767      1
 12768 12764 12768      1
 12769 12764 12769      1
 12770 12769 12770      1
 12771 12769 12771      1
 12772 12769 12772      1
 12773 12770 12773      1
 12774 12770 12774      1
 12775 12770 12775      1
 12776 12775 12776      1
 12777 12775 12777      1
 12778 12775 12778      1
 12779 12776 12779      1
 12780 12776 12780      1
 12781 12776 12781      1
 12782 12781 12782      1
 12783 12781 12783      1
 12784 12781 12784      1
 12785 12782 12785      1
 12786 12782 12786      1
 12787 12782 12787      1
 12788 12787 12788      1
 12789 12787 12789      1
 12790 12787 12790      1
 12791 12788 12791      1
 12792 12788 12792      1
 12793 12788 12793      1
 12794 12793 12794      1
 12795 12793 12795      1
 12796 12793 12796      1
 12797 12794 12797      1
 12798 12794 12798      1
 12799 12794 12799      1
 12800 12799 12800      1
 12801 12799 12801      1
 12802 12799 12802      1
 12803 12800 12803      1
 12804 12800 12804      1
 12805 12800 12805      1
 12806 12805 12806      1
 12807 12805 12807      1
 12808 12805 12808      1
 12809 12806 12809      1
 12810 12806 12810      1
 12811 12806 12811      1
 12812 12811 12812      1
 12813 12811 12813      1
 12814 12811 12814      1
 12815 12812 12815      1
 12816 12812 12816      1
 12817 12812 12817      1
 12818 12817 12818      1
 12819 12817 12819      1
 12820 12817 12820      1
 12821 12818 12821      1
 12822 12818 12822      1
 12823 12818 12823      1
 12824 12823 12824      1
 12825 12823 12825      1
 12826 12823 12826      1
 12827 12824 12827      1
 12828 12824 12828      1
 12829 12824 12829      1
 12830 12829 12830      1
 12831 12829 12831      1
 12832 12829 12832      1
 12833 12830 12833      1
 12834 12830 12834      1
 12835 12830 12835      1
 12836 12835 12836      1
 12837 12835 12837      1
 12838 12835 12838      1
 12839 12836 12839      1
 12840 12836 12840      1
 12841 12836 12841      1
 12842 12841 12842      1
 12843 12841 12843      1
 12844 12841 12844      1
 12845 12842 12845      1
 12846 12842 12846      1
 12847 12842 12847      1
 12848 12847 12848      1
 12849 12847 12849      1
 12850 12847 12850      1
 12851 12848 12851      1
 12852 12848 12852      1
 12853 12848 12853      1
 12854 12853 12854      1
 12855 12853 12855      1
 12856 12853 12856      1
 12857 12854 12857      1
 12858 12854 12858      1
 12859 12854 12859      1
 12860 12859 12860      1
 12861 12859 12861      1
 12862 12859 12862      1
 12863 12860 12863      1
 12864 12860 12864      1
 12865 12860 12865      1
 12866 12865 12866      1
 12867 12865 12867      1
 12868 12865 12868      1
 12869 12866 12869      1
 12870 12866 12870      1
 12871 12866 12871      1
 12872 12871 12872      1
 12873 12871 12873      1
 12874 12871 12874      1
 12875 12872 12875      1
 12876 12872 12876      1
 12877 12872 12877      1
 12878 12877 12878      1
 12879 12877 12879      1
 12880 12877 12880      1
 12881 12878 12881      1
 12882 12878 12882      1
 12883 12878 12883      1
 12884 12883 12884      1
 12885 12883 12885      1
 12886 12883 12886      1
 12887 12884 12887      1
 12888 12884 12888      1
 12889 12884 12889      1
 12890 12889 12890      1
 12891 12889 12891      1
 12892 12889 12892      1
 12893 12890 12893      1
 12894 12890 12894      1
 12895 12890 12895      1
 12896 12895 12896      1
 12897 12895 12897      1
 12898 12895 12898      1
 12899 12896 12899      1
 12900 12896 12900      1
 12901 12896 12901      1
 12902 12901 12902      1
 12903 12901 12903      1
 12904 12901 12904      1
 12905 12902 12905      1
 12906 12902 12906      1
 12907 12902 12907      1
 12908 12907 12908      1
 12909 12907 12909      1
 12910 12907 12910      1
 12911 12908 12911      1
 12912 12908 12912      1
 12913 12908 12913      1
 12914 12913 12914      1
 12915 12913 12915      1
 12916 12913 12916      1
 12917 12914 12917      1
 12918 12914 12918      1
 12919 12914 12919      1
 12920 12919 12920      1
 12921 12919 12921      1
 12922 12919 12922      1
 12923 12920 12923      1
 12924 12920 12924      1
 12925 12920 12925      1
 12926 12925 12926      1
 12927 12925 12927      1
 12928 12925 12928      1
 12929 12926 12929      1
 12930 12926 12930      1
 12931 12926 12931      1
 12932 12931 12932      1
 12933 12931 12933      1
 12934 12931 12934      1
 12935 12932 12935      1
 12936 12932 12936      1
 12937 12932 12937      1
 12938 12937 12938      1
 12939 12937 12939      1
 12940 12937 12940      1
 12941 12938 12941      1
 12942 12938 12942      1
 12943 12938 12943      1
 12944 12943 12944      1
 12945 12943 12945      1
 12946 12943 12946      1
 12947 12944 12947      1
 12948 12944 12948      1
 12949 12944 12949      1
 12950 12949 12950      1
 12951 12949 12951      1
 12952 12949 12952      1
 12953 12950 12953      1
 12954 12950 12954      1
 12955 12950 12955      1
 12956 12955 12956      1
 12957 12955 12957      1
 12958 12955 12958      1
 12959 12956 12959      1
 12960 12956 12960      1
 12961 12956 12961      1
 12962 12961 12962      1
 12963 12961 12963      1
 12964 12961 12964      1
 12965 12962 12965      1
 12966 12962 12966      1
 12967 12962 12967      1
 12968 12967 12968      1
 12969 12967 12969      1
 12970 12967 12970      1
 12971 12968 12971      1
 12972 12968 12972      1
 12973 12968 12973      1
 12974 12973 12974      1
 12975 12973 12975      1
 12976 12973 12976      1
 12977 12974 12977      1
 12978 12974 12978      1
 12979 12974 12979      1
 12980 12979 12980      1
 12981 12979 12981      1
 12982 12979 12982      1
 12983 12980 12983      1
 12984 12980 12984      1
 12985 12980 12985      1
 12986 12985 12986      1
 12987 12985 12987      1
 12988 12985 12988      1
 12989 12986 12989      1
 12990 12986 12990      1
 12991 12986 12991      1
 12992 12991 12992      1
 12993 12991 12993      1
 12994 12991 12994      1
 12995 12992 12995      1
 12996 12992 12996      1
 12997 12992 12997      1
 12998 12997 12998      1
 12999 12997 12999      1
 13000 12997 13000      1
 13001 12998 13001      1
 13002 12998 13002      1
 13003 12998 13003      1
 13004 13003 13004      1
 13005 13003 13005      1
 13006 13003 13006      1
 13007 13004 13007      1
 13008 13004 13008      1
 13009 13004 13009      1
 13010 13009 13010      1
 13011 13009 13011      1
 13012 13009 13012      1
 13013 13010 13013      1
 13014 13010 13014      1
 13015 13010 13015      1
 13016 13015 13016      1
 13017 13015 13017      1
 13018 13015 13018      1
 13019 13016 13019      1
 13020 13016 13020      1
 13021 13016 13021      1
 13022 13021 13022      1
 13023 13021 13023      1
 13024 13021 13024      1
 13025 13022 13025      1
 13026 13022 13026      1
 13027 13022 13027      1
 13028 13027 13028      1
 13029 13027 13029      1
 13030 13027 13030      1
 13031 13028 13031      1
 13032 13028 13032      1
 13033 13028 13033      1
 13034 13033 13034      1
 13035 13033 13035      1
 13036 13033 13036      1
 13037 13034 13037      1
 13038 13034 13038      1
 13039 13034 13039      1
 13040 13039 13040      1
 13041 13039 13041      1
 13042 13039 13042      1
 13043 13040 13043      1
 13044 13040 13044      1
 13045 13040 13045      1
 13046 13045 13046      1
 13047 13045 13047      1
 13048 13045 13048      1
 13049 13046 13049      1
 13050 13046 13050      1
 13051 13046 13051      1
 13052 13051 13052      1
 13053 13051 13053      1
 13054 13051 13054      1
 13055 13052 13055      1
 13056 13052 13056      1
 13057 13052 13057      1
 13058 13057 13058      1
 13059 13057 13059      1
 13060 13057 13060      1
 13061 13058 13061      1
 13062 13058 13062      1
 13063 13058 13063      1
 13064 13063 13064      1
 13065 13063 13065      1
 13066 13063 13066      1
 13067 13064 13067      1
 13068 13064 13068      1
 13069 13064 13069      1
 13070 13069 13070      1
 13071 13069 13071      1
 13072 13069 13072      1
 13073 13070 13073      1
 13074 13070 13074      1
 13075 13070 13075      1
 13076 13075 13076      1
 13077 13075 13077      1
 13078 13075 13078      1
 13079 13076 13079      1
 13080 13076 13080      1
 13081 13076 13081      1
 13082 13081 13082      1
 13083 13081 13083      1
 13084 13081 13084      1
 13085 13082 13085      1
 13086 13082 13086      1
 13087 13082 13087      1
 13088 13087 13088      1
 13089 13087 13089      1
 13090 13087 13090      1
 13091 13088 13091      1
 13092 13088 13092      1
 13093 13088 13093      1
 13094 13093 13094      1
 13095 13093 13095      1
 13096 13093 13096      1
 13097 13094 13097      1
 13098 13094 13098      1
 13099 13094 13099      1
 13100 13099 13100      1
 13101 13099 13101      1
 13102 13099 13102      1
 13103 13100 13103      1
 13104 13100 13104      1
 13105 13100 13105      1
 13106 13105 13106      1
 13107 13105 13107      1
 13108 13105 13108      1
 13109 13106 13109      1
 13110 13106 13110      1
 13111 13106 13111      1
 13112 13111 13112      1
 13113 13111 13113      1
 13114 13111 13114      1
 13115 13112 13115      1
 13116 13112 13116      1
 13117 13112 13117      1
 13118 13117 13118      1
 13119 13117 13119      1
 13120 13117 13120      1
 13121 13118 13121      1
 13122 13118 13122      1
 13123 13118 13123      1
 13124 13123 13124      1
 13125 13123 13125      1
 13126 13123 13126      1
 13127 13124 13127      1
 13128 13124 13128      1
 13129 13124 13129      1
 13130 13129 13130      1
 13131 13129 13131      1
 13132 13129 13132      1
 13133 13130 13133      1
 13134 13130 13134      1
 13135 13130 13135      1
 13136 13135 13136      1
 13137 13135 13137      1
 13138 13135 13138      1
 13139 13136 13139      1
 13140 13136 13140      1
 13141 13136 13141      1
 13142 13141 13142      1
 13143 13141 13143      1
 13144 13141 13144      1
 13145 13142 13145      1
 13146 13142 13146      1
 13147 13142 13147      1
 13148 13147 13148      1
 13149 13147 13149      1
 13150 13147 13150      1
 13151 13148 13151      1
 13152 13148 13152      1
 13153 13148 13153      1
 13154 13153 13154      1
 13155 13153 13155      1
 13156 13153 13156      1
 13157 13154 13157      1
 13158 13154 13158      1
 13159 13154 13159      1
 13160 13159 13160      1
 13161 13159 13161      1
 13162 13159 13162      1
 13163 13160 13163      1
 13164 13160 13164      1
 13165 13160 13165      1
 13166 13165 13166      1
 13167 13165 13167      1
 13168 13165 13168      1
 13169 13166 13169      1
 13170 13166 13170      1
 13171 13166 13171      1
 13172 13171 13172      1
 13173 13171 13173      1
 13174 13171 13174      1
 13175 13172 13175      1
 13176 13172 13176      1
 13177 13172 13177      1
 13178 13177 13178      1
 13179 13177 13179      1
 13180 13177 13180      1
 13181 13178 13181      1
 13182 13178 13182      1
 13183 13178 13183      1
 13184 13183 13184      1
 13185 13183 13185      1
 13186 13183 13186      1
 13187 13184 13187      1
 13188 13184 13188      1
 13189 13184 13189      1
 13190 13189 13190      1
 13191 13189 13191      1
 13192 13189 13192      1
 13193 13190 13193      1
 13194 13190 13194      1
 13195 13190 13195      1
 13196 13195 13196      1
 13197 13195 13197      1
 13198 13195 13198      1
 13199 13196 13199      1
 13200 13196 13200      1
 13201 13196 13201      1
 13202 13201 13202      1
 13203 13201 13203      1
 13204 13201 13204      1
 13205 13202 13205      1
 13206 13202 13206      1
 13207 13202 13207      1
 13208 13207 13208      1
 13209 13207 13209      1
 13210 13207 13210      1
 13211 13208 13211      1
 13212 13208 13212      1
 13213 13208 13213      1
 13214 13213 13214      1
 13215 13213 13215      1
 13216 13213 13216      1
 13217 13214 13217      1
 13218 13214 13218      1
 13219 13214 13219      1
 13220 13219 13220      1
 13221 13219 13221      1
 13222 13219 13222      1
 13223 13220 13223      1
 13224 13220 13224      1
 13225 13220 13225      1
 13226 13225 13226      1
 13227 13225 13227      1
 13228 13225 13228      1
 13229 13226 13229      1
 13230 13226 13230      1
 13231 13226 13231      1
 13232 13231 13232      1
 13233 13231 13233      1
 13234 13231 13234      1
 13235 13232 13235      1
 13236 13232 13236      1
 13237 13232 13237      1
 13238 13237 13238      1
 13239 13237 13239      1
 13240 13237 13240      1
 13241 13238 13241      1
 13242 13238 13242      1
 13243 13238 13243      1
 13244 13243 13244      1
 13245 13243 13245      1
 13246 13243 13246      1
 13247 13244 13247      1
 13248 13244 13248      1
 13249 13244 13249      1
 13250 13249 13250      1
 13251 13249 13251      1
 13252 13249 13252      1
 13253 13250 13253      1
 13254 13250 13254      1
 13255 13250 13255      1
 13256 13255 13256      1
 13257 13255 13257      1
 13258 13255 13258      1
 13259 13256 13259      1
 13260 13256 13260      1
 13261 13256 13261      1
 13262 13261 13262      1
 13263 13261 13263      1
 13264 13261 13264      1
 13265 13262 13265      1
 13266 13262 13266      1
 13267 13262 13267      1
 13268 13267 13268      1
 13269 13267 13269      1
 13270 13267 13270      1
 13271 13268 13271      1
 13272 13268 13272      1
 13273 13268 13273      1
 13274 13273 13274      1
 13275 13273 13275      1
 13276 13273 13276      1
 13277 13274 13277      1
 13278 13274 13278      1
 13279 13274 13279      1
 13280 13279 13280      1
 13281 13279 13281      1
 13282 13279 13282      1
 13283 13280 13283      1
 13284 13280 13284      1
 13285 13280 13285      1
 13286 13285 13286      1
 13287 13285 13287      1
 13288 13285 13288      1
 13289 13286 13289      1
 13290 13286 13290      1
 13291 13286 13291      1
 13292 13291 13292      1
 13293 13291 13293      1
 13294 13291 13294      1
 13295 13292 13295      1
 13296 13292 13296      1
 13297 13292 13297      1
 13298 13297 13298      1
 13299 13297 13299      1
 13300 13297 13300      1
 13301 13298 13301      1
 13302 13298 13302      1
 13303 13298 13303      1
 13304 13303 13304      1
 13305 13303 13305      1
 13306 13303 13306      1
 13307 13304 13307      1
 13308 13304 13308      1
 13309 13304 13309      1
 13310 13309 13310      1
 13311 13309 13311      1
 13312 13309 13312      1
 13313 13310 13313      1
 13314 13310 13314      1
 13315 13310 13315      1
 13316 13315 13316      1
 13317 13315 13317      1
 13318 13315 13318      1
 13319 13316 13319      1
 13320 13316 13320      1
 13321 13316 13321      1
 13322 13321 13322      1
 13323 13321 13323      1
 13324 13321 13324      1
 13325 13322 13325      1
 13326 13322 13326      1
 13327 13322 13327      1
 13328 13327 13328      1
 13329 13327 13329      1
 13330 13327 13330      1
 13331 13328 13331      1
 13332 13328 13332      1
 13333 13328 13333      1
 13334 13333 13334      1
 13335 13333 13335      1
 13336 13333 13336      1
 13337 13334 13337      1
 13338 13334 13338      1
 13339 13334 13339      1
 13340 13339 13340      1
 13341 13339 13341      1
 13342 13339 13342      1
 13343 13340 13343      1
 13344 13340 13344      1
 13345 13340 13345      1
 13346 13345 13346      1
 13347 13345 13347      1
 13348 13345 13348      1
 13349 13346 13349      1
 13350 13346 13350      1
 13351 13346 13351      1
 13352 13351 13352      1
 13353 13351 13353      1
 13354 13351 13354      1
 13355 13352 13355      1
 13356 13352 13356      1
 13357 13352 13357      1
 13358 13357 13358      1
 13359 13357 13359      1
 13360 13357 13360      1
 13361 13358 13361      1
 13362 13358 13362      1
 13363 13358 13363      1
 13364 13363 13364      1
 13365 13363 13365      1
 13366 13363 13366      1
 13367 13364 13367      1
 13368 13364 13368      1
 13369 13364 13369      1
 13370 13369 13370      1
 13371 13369 13371      1
 13372 13369 13372      1
 13373 13370 13373      1
 13374 13370 13374      1
 13375 13370 13375      1
 13376 13375 13376      1
 13377 13375 13377      1
 13378 13375 13378      1
 13379 13376 13379      1
 13380 13376 13380      1
 13381 13376 13381      1
 13382 13381 13382      1
 13383 13381 13383      1
 13384 13381 13384      1
 13385 13382 13385      1
 13386 13382 13386      1
 13387 13382 13387      1
 13388 13387 13388      1
 13389 13387 13389      1
 13390 13387 13390      1
 13391 13388 13391      1
 13392 13388 13392      1
 13393 13388 13393      1
 13394 13393 13394      1
 13395 13393 13395      1
 13396 13393 13396      1
 13397 13394 13397      1
 13398 13394 13398      1
 13399 13394 13399      1
 13400 13399 13400      1
 13401 13399 13401      1
 13402 13399 13402      1
 13403 13400 13403      1
 13404 13400 13404      1
 13405 13400 13405      1
 13406 13405 13406      1
 13407 13405 13407      1
 13408 13405 13408      1
 13409 13406 13409      1
 13410 13406 13410      1
 13411 13406 13411      1
 13412 13411 13412      1
 13413 13411 13413      1
 13414 13411 13414      1
 13415 13412 13415      1
 13416 13412 13416      1
 13417 13412 13417      1
 13418 13417 13418      1
 13419 13417 13419      1
 13420 13417 13420      1
 13421 13418 13421      1
 13422 13418 13422      1
 13423 13418 13423      1
 13424 13423 13424      1
 13425 13423 13425      1
 13426 13423 13426      1
 13427 13424 13427      1
 13428 13424 13428      1
 13429 13424 13429      1
 13430 13429 13430      1
 13431 13429 13431      1
 13432 13429 13432      1
 13433 13430 13433      1
 13434 13430 13434      1
 13435 13430 13435      1
 13436 13435 13436      1
 13437 13435 13437      1
 13438 13435 13438      1
 13439 13436 13439      1
 13440 13436 13440      1
 13441 13436 13441      1
 13442 13441 13442      1
 13443 13441 13443      1
 13444 13441 13444      1
 13445 13442 13445      1
 13446 13442 13446      1
 13447 13442 13447      1
 13448 13447 13448      1
 13449 13447 13449      1
 13450 13447 13450      1
 13451 13448 13451      1
 13452 13448 13452      1
 13453 13448 13453      1
 13454 13453 13454      1
 13455 13453 13455      1
 13456 13453 13456      1
 13457 13454 13457      1
 13458 13454 13458      1
 13459 13454 13459      1
 13460 13459 13460      1
 13461 13459 13461      1
 13462 13459 13462      1
 13463 13460 13463      1
 13464 13460 13464      1
 13465 13460 13465      1
 13466 13465 13466      1
 13467 13465 13467      1
 13468 13465 13468      1
 13469 13466 13469      1
 13470 13466 13470      1
 13471 13466 13471      1
 13472 13471 13472      1
 13473 13471 13473      1
 13474 13471 13474      1
 13475 13472 13475      1
 13476 13472 13476      1
 13477 13472 13477      1
 13478 13477 13478      1
 13479 13477 13479      1
 13480 13477 13480      1
 13481 13478 13481      1
 13482 13478 13482      1
 13483 13478 13483      1
 13484 13483 13484      1
 13485 13483 13485      1
 13486 13483 13486      1
 13487 13484 13487      1
 13488 13484 13488      1
 13489 13484 13489      1
 13490 13489 13490      1
 13491 13489 13491      1
 13492 13489 13492      1
 13493 13490 13493      1
 13494 13490 13494      1
 13495 13490 13495      1
 13496 13495 13496      1
 13497 13495 13497      1
 13498 13495 13498      1
 13499 13496 13499      1
 13500 13496 13500      1
 13501 13496 13501      1
 13502 13501 13502      1
 13503 13501 13503      1
 13504 13501 13504      1
 13505 13502 13505      1
 13506 13502 13506      1
 13507 13502 13507      1
 13508 13507 13508      1
 13509 13507 13509      1
 13510 13507 13510      1
 13511 13508 13511      1
 13512 13508 13512      1
 13513 13508 13513      1
 13514 13513 13514      1
 13515 13513 13515      1
 13516 13513 13516      1
 13517 13514 13517      1
 13518 13514 13518      1
 13519 13514 13519      1
 13520 13519 13520      1
 13521 13519 13521      1
 13522 13519 13522      1
 13523 13520 13523      1
 13524 13520 13524      1
 13525 13520 13525      1
 13526 13525 13526      1
 13527 13525 13527      1
 13528 13525 13528      1
 13529 13526 13529      1
 13530 13526 13530      1
 13531 13526 13531      1
 13532 13531 13532      1
 13533 13531 13533      1
 13534 13531 13534      1
 13535 13532 13535      1
 13536 13532 13536      1
 13537 13532 13537      1
 13538 13537 13538      1
 13539 13537 13539      1
 13540 13537 13540      1
 13541 13538 13541      1
 13542 13538 13542      1
 13543 13538 13543      1
 13544 13543 13544      1
 13545 13543 13545      1
 13546 13543 13546      1
 13547 13544 13547      1
 13548 13544 13548      1
 13549 13544 13549      1
 13550 13549 13550      1
 13551 13549 13551      1
 13552 13549 13552      1
 13553 13550 13553      1
 13554 13550 13554      1
 13555 13550 13555      1
 13556 13555 13556      1
 13557 13555 13557      1
 13558 13555 13558      1
 13559 13556 13559      1
 13560 13556 13560      1
 13561 13556 13561      1
 13562 13561 13562      1
 13563 13561 13563      1
 13564 13561 13564      1
 13565 13562 13565      1
 13566 13562 13566      1
 13567 13562 13567      1
 13568 13567 13568      1
 13569 13567 13569      1
 13570 13567 13570      1
 13571 13568 13571      1
 13572 13568 13572      1
 13573 13568 13573      1
 13574 13573 13574      1
 13575 13573 13575      1
 13576 13573 13576      1
 13577 13574 13577      1
 13578 13574 13578      1
 13579 13574 13579      1
 13580 13579 13580      1
 13581 13579 13581      1
 13582 13579 13582      1
 13583 13580 13583      1
 13584 13580 13584      1
 13585 13580 13585      1
 13586 13585 13586      1
 13587 13585 13587      1
 13588 13585 13588      1
 13589 13586 13589      1
 13590 13586 13590      1
 13591 13586 13591      1
 13592 13591 13592      1
 13593 13591 13593      1
 13594 13591 13594      1
 13595 13592 13595      1
 13596 13592 13596      1
 13597 13592 13597      1
 13598 13597 13598      1
 13599 13597 13599      1
 13600 13597 13600      1
 13601 13598 13601      1
 13602 13598 13602      1
 13603 13598 13603      1
 13604 13603 13604      1
 13605 13603 13605      1
 13606 13603 13606      1
 13607 13604 13607      1
 13608 13604 13608      1
 13609 13604 13609      1
 13610 13609 13610      1
 13611 13609 13611      1
 13612 13609 13612      1
 13613 13610 13613      1
 13614 13610 13614      1
 13615 13610 13615      1
 13616 13615 13616      1
 13617 13615 13617      1
 13618 13615 13618      1
 13619 13616 13619      1
 13620 13616 13620      1
 13621 13616 13621      1
 13622 13621 13622      1
 13623 13621 13623      1
 13624 13621 13624      1
 13625 13622 13625      1
 13626 13622 13626      1
 13627 13622 13627      1
 13628 13627 13628      1
 13629 13627 13629      1
 13630 13627 13630      1
 13631 13628 13631      1
 13632 13628 13632      1
 13633 13628 13633      1
 13634 13633 13634      1
 13635 13633 13635      1
 13636 13633 13636      1
 13637 13634 13637      1
 13638 13634 13638      1
 13639 13634 13639      1
 13640 13639 13640      1
 13641 13639 13641      1
 13642 13639 13642      1
 13643 13640 13643      1
 13644 13640 13644      1
 13645 13640 13645      1
 13646 13645 13646      1
 13647 13645 13647      1
 13648 13645 13648      1
 13649 13646 13649      1
 13650 13646 13650      1
 13651 13646 13651      1
 13652 13651 13652      1
 13653 13651 13653      1
 13654 13651 13654      1
 13655 13652 13655      1
 13656 13652 13656      1
 13657 13652 13657      1
 13658 13657 13658      1
 13659 13657 13659      1
 13660 13657 13660      1
 13661 13658 13661      1
 13662 13658 13662      1
 13663 13658 13663      1
 13664 13663 13664      1
 13665 13663 13665      1
 13666 13663 13666      1
 13667 13664 13667      1
 13668 13664 13668      1
 13669 13664 13669      1
 13670 13669 13670      1
 13671 13669 13671      1
 13672 13669 13672      1
 13673 13670 13673      1
 13674 13670 13674      1
 13675 13670 13675      1
 13676 13675 13676      1
 13677 13675 13677      1
 13678 13675 13678      1
 13679 13676 13679      1
 13680 13676 13680      1
 13681 13676 13681      1
 13682 13681 13682      1
 13683 13681 13683      1
 13684 13681 13684      1
 13685 13682 13685      1
 13686 13682 13686      1
 13687 13682 13687      1
 13688 13687 13688      1
 13689 13687 13689      1
 13690 13687 13690      1
 13691 13688 13691      1
 13692 13688 13692      1
 13693 13688 13693      1
 13694 13693 13694      1
 13695 13693 13695      1
 13696 13693 13696      1
 13697 13694 13697      1
 13698 13694 13698      1
 13699 13694 13699      1
 13700 13699 13700      1
 13701 13699 13701      1
 13702 13699 13702      1
 13703 13700 13703      1
 13704 13700 13704      1
 13705 13700 13705      1
 13706 13705 13706      1
 13707 13705 13707      1
 13708 13705 13708      1
 13709 13706 13709      1
 13710 13706 13710      1
 13711 13706 13711      1
 13712 13711 13712      1
 13713 13711 13713      1
 13714 13711 13714      1
 13715 13712 13715      1
 13716 13712 13716      1
 13717 13712 13717      1
 13718 13717 13718      1
 13719 13717 13719      1
 13720 13717 13720      1
 13721 13718 13721      1
 13722 13718 13722      1
 13723 13718 13723      1
 13724 13723 13724      1
 13725 13723 13725      1
 13726 13723 13726      1
 13727 13724 13727      1
 13728 13724 13728      1
 13729 13724 13729      1
 13730 13729 13730      1
 13731 13729 13731      1
 13732 13729 13732      1
 13733 13730 13733      1
 13734 13730 13734      1
 13735 13730 13735      1
 13736 13735 13736      1
 13737 13735 13737      1
 13738 13735 13738      1
 13739 13736 13739      1
 13740 13736 13740      1
 13741 13736 13741      1
 13742 13741 13742      1
 13743 13741 13743      1
 13744 13741 13744      1
 13745 13742 13745      1
 13746 13742 13746      1
 13747 13742 13747      1
 13748 13747 13748      1
 13749 13747 13749      1
 13750 13747 13750      1
 13751 13748 13751      1
 13752 13748 13752      1
 13753 13748 13753      1
 13754 13753 13754      1
 13755 13753 13755      1
 13756 13753 13756      1
 13757 13754 13757      1
 13758 13754 13758      1
 13759 13754 13759      1
 13760 13759 13760      1
 13761 13759 13761      1
 13762 13759 13762      1
 13763 13760 13763      1
 13764 13760 13764      1
 13765 13760 13765      1
 13766 13765 13766      1
 13767 13765 13767      1
 13768 13765 13768      1
 13769 13766 13769      1
 13770 13766 13770      1
 13771 13766 13771      1
 13772 13771 13772      1
 13773 13771 13773      1
 13774 13771 13774      1
 13775 13772 13775      1
 13776 13772 13776      1
 13777 13772 13777      1
 13778 13777 13778      1
 13779 13777 13779      1
 13780 13777 13780      1
 13781 13778 13781      1
 13782 13778 13782      1
 13783 13778 13783      1
 13784 13783 13784      1
 13785 13783 13785      1
 13786 13783 13786      1
 13787 13784 13787      1
 13788 13784 13788      1
 13789 13784 13789      1
 13790 13789 13790      1
 13791 13789 13791      1
 13792 13789 13792      1
 13793 13790 13793      1
 13794 13790 13794      1
 13795 13790 13795      1
 13796 13795 13796      1
 13797 13795 13797      1
 13798 13795 13798      1
 13799 13796 13799      1
 13800 13796 13800      1
 13801 13796 13801      1
 13802 13801 13802      1
 13803 13801 13803      1
 13804 13801 13804      1
 13805 13802 13805      1
 13806 13802 13806      1
 13807 13802 13807      1
 13808 13807 13808      1
 13809 13807 13809      1
 13810 13807 13810      1
 13811 13808 13811      1
 13812 13808 13812      1
 13813 13808 13813      1
 13814 13813 13814      1
 13815 13813 13815      1
 13816 13813 13816      1
 13817 13814 13817      1
 13818 13814 13818      1
 13819 13814 13819      1
 13820 13819 13820      1
 13821 13819 13821      1
 13822 13819 13822      1
 13823 13820 13823      1
 13824 13820 13824      1
 13825 13820 13825      1
 13826 13825 13826      1
 13827 13825 13827      1
 13828 13825 13828      1
 13829 13826 13829      1
 13830 13826 13830      1
 13831 13826 13831      1
 13832 13831 13832      1
 13833 13831 13833      1
 13834 13831 13834      1
 13835 13832 13835      1
 13836 13832 13836      1
 13837 13832 13837      1
 13838 13837 13838      1
 13839 13837 13839      1
 13840 13837 13840      1
 13841 13838 13841      1
 13842 13838 13842      1
 13843 13838 13843      1
 13844 13843 13844      1
 13845 13843 13845      1
 13846 13843 13846      1
 13847 13844 13847      1
 13848 13844 13848      1
 13849 13844 13849      1
 13850 13849 13850      1
 13851 13849 13851      1
 13852 13849 13852      1
 13853 13850 13853      1
 13854 13850 13854      1
 13855 13850 13855      1
 13856 13855 13856      1
 13857 13855 13857      1
 13858 13855 13858      1
 13859 13856 13859      1
 13860 13856 13860      1
 13861 13856 13861      1
 13862 13861 13862      1
 13863 13861 13863      1
 13864 13861 13864      1
 13865 13862 13865      1
 13866 13862 13866      1
 13867 13862 13867      1
 13868 13867 13868      1
 13869 13867 13869      1
 13870 13867 13870      1
 13871 13868 13871      1
 13872 13868 13872      1
 13873 13868 13873      1
 13874 13873 13874      1
 13875 13873 13875      1
 13876 13873 13876      1
 13877 13874 13877      1
 13878 13874 13878      1
 13879 13874 13879      1
 13880 13879 13880      1
 13881 13879 13881      1
 13882 13879 13882      1
 13883 13880 13883      1
 13884 13880 13884      1
 13885 13880 13885      1
 13886 13885 13886      1
 13887 13885 13887      1
 13888 13885 13888      1
 13889 13886 13889      1
 13890 13886 13890      1
 13891 13886 13891      1
 13892 13891 13892      1
 13893 13891 13893      1
 13894 13891 13894      1
 13895 13892 13895      1
 13896 13892 13896      1
 13897 13892 13897      1
 13898 13897 13898      1
 13899 13897 13899      1
 13900 13897 13900      1
 13901 13898 13901      1
 13902 13898 13902      1
 13903 13898 13903      1
 13904 13903 13904      1
 13905 13903 13905      1
 13906 13903 13906      1
 13907 13904 13907      1
 13908 13904 13908      1
 13909 13904 13909      1
 13910 13909 13910      1
 13911 13909 13911      1
 13912 13909 13912      1
 13913 13910 13913      1
 13914 13910 13914      1
 13915 13910 13915      1
 13916 13915 13916      1
 13917 13915 13917      1
 13918 13915 13918      1
 13919 13916 13919      1
 13920 13916 13920      1
 13921 13916 13921      1
 13922 13921 13922      1
 13923 13921 13923      1
 13924 13921 13924      1
 13925 13922 13925      1
 13926 13922 13926      1
 13927 13922 13927      1
 13928 13927 13928      1
 13929 13927 13929      1
 13930 13927 13930      1
 13931 13928 13931      1
 13932 13928 13932      1
 13933 13928 13933      1
 13934 13933 13934      1
 13935 13933 13935      1
 13936 13933 13936      1
 13937 13934 13937      1
 13938 13934 13938      1
 13939 13934 13939      1
 13940 13939 13940      1
 13941 13939 13941      1
 13942 13939 13942      1
 13943 13940 13943      1
 13944 13940 13944      1
 13945 13940 13945      1
 13946 13945 13946      1
 13947 13945 13947      1
 13948 13945 13948      1
 13949 13946 13949      1
 13950 13946 13950      1
 13951 13946 13951      1
 13952 13951 13952      1
 13953 13951 13953      1
 13954 13951 13954      1
 13955 13952 13955      1
 13956 13952 13956      1
 13957 13952 13957      1
 13958 13957 13958      1
 13959 13957 13959      1
 13960 13957 13960      1
 13961 13958 13961      1
 13962 13958 13962      1
 13963 13958 13963      1
 13964 13963 13964      1
 13965 13963 13965      1
 13966 13963 13966      1
 13967 13964 13967      1
 13968 13964 13968      1
 13969 13964 13969      1
 13970 13969 13970      1
 13971 13969 13971      1
 13972 13969 13972      1
 13973 13970 13973      1
 13974 13970 13974      1
 13975 13970 13975      1
 13976 13975 13976      1
 13977 13975 13977      1
 13978 13975 13978      1
 13979 13976 13979      1
 13980 13976 13980      1
 13981 13976 13981      1
 13982 13981 13982      1
 13983 13981 13983      1
 13984 13981 13984      1
 13985 13982 13985      1
 13986 13982 13986      1
 13987 13982 13987      1
 13988 13987 13988      1
 13989 13987 13989      1
 13990 13987 13990      1
 13991 13988 13991      1
 13992 13988 13992      1
 13993 13988 13993      1
 13994 13993 13994      1
 13995 13993 13995      1
 13996 13993 13996      1
 13997 13994 13997      1
 13998 13994 13998      1
 13999 13994 13999      1
 14000 13999 14000      1
 14001 13999 14001      1
 14002 13999 14002      1
 14003 14000 14003      1
 14004 14000 14004      1
 14005 14000 14005      1
 14006 14005 14006      1
 14007 14005 14007      1
 14008 14005 14008      1
 14009 14006 14009      1
 14010 14006 14010      1
 14011 14006 14011      1
 14012 14011 14012      1
 14013 14011 14013      1
 14014 14011 14014      1
 14015 14012 14015      1
 14016 14012 14016      1
 14017 14012 14017      1
 14018 14017 14018      1
 14019 14017 14019      1
 14020 14017 14020      1
 14021 14018 14021      1
 14022 14018 14022      1
 14023 14018 14023      1
 14024 14023 14024      1
 14025 14023 14025      1
 14026 14023 14026      1
 14027 14024 14027      1
 14028 14024 14028      1
 14029 14024 14029      1
 14030 14029 14030      1
 14031 14029 14031      1
 14032 14029 14032      1
 14033 14030 14033      1
 14034 14030 14034      1
 14035 14030 14035      1
 14036 14035 14036      1
 14037 14035 14037      1
 14038 14035 14038      1
 14039 14036 14039      1
 14040 14036 14040      1
 14041 14036 14041      1
 14042 14041 14042      1
 14043 14041 14043      1
 14044 14041 14044      1
 14045 14042 14045      1
 14046 14042 14046      1
 14047 14042 14047      1
 14048 14047 14048      1
 14049 14047 14049      1
 14050 14047 14050      1
 14051 14048 14051      1
 14052 14048 14052      1
 14053 14048 14053      1
 14054 14053 14054      1
 14055 14053 14055      1
 14056 14053 14056      1
 14057 14054 14057      1
 14058 14054 14058      1
 14059 14054 14059      1
 14060 14059 14060      1
 14061 14059 14061      1
 14062 14059 14062      1
 14063 14060 14063      1
 14064 14060 14064      1
 14065 14060 14065      1
 14066 14065 14066      1
 14067 14065 14067      1
 14068 14065 14068      1
 14069 14066 14069      1
 14070 14066 14070      1
 14071 14066 14071      1
 14072 14071 14072      1
 14073 14071 14073      1
 14074 14071 14074      1
 14075 14072 14075      1
 14076 14072 14076      1
 14077 14072 14077      1
 14078 14077 14078      1
 14079 14077 14079      1
 14080 14077 14080      1
 14081 14078 14081      1
 14082 14078 14082      1
 14083 14078 14083      1
 14084 14083 14084      1
 14085 14083 14085      1
 14086 14083 14086      1
 14087 14084 14087      1
 14088 14084 14088      1
 14089 14084 14089      1
 14090 14089 14090      1
 14091 14089 14091      1
 14092 14089 14092      1
 14093 14090 14093      1
 14094 14090 14094      1
 14095 14090 14095      1
 14096 14095 14096      1
 14097 14095 14097      1
 14098 14095 14098      1
 14099 14096 14099      1
 14100 14096 14100      1
 14101 14096 14101      1
 14102 14101 14102      1
 14103 14101 14103      1
 14104 14101 14104      1
 14105 14102 14105      1
 14106 14102 14106      1
 14107 14102 14107      1
 14108 14107 14108      1
 14109 14107 14109      1
 14110 14107 14110      1
 14111 14108 14111      1
 14112 14108 14112      1
 14113 14108 14113      1
 14114 14113 14114      1
 14115 14113 14115      1
 14116 14113 14116      1
 14117 14114 14117      1
 14118 14114 14118      1
 14119 14114 14119      1
 14120 14119 14120      1
 14121 14119 14121      1
 14122 14119 14122      1
 14123 14120 14123      1
 14124 14120 14124      1
 14125 14120 14125      1
 14126 14125 14126      1
 14127 14125 14127      1
 14128 14125 14128      1
 14129 14126 14129      1
 14130 14126 14130      1
 14131 14126 14131      1
 14132 14131 14132      1
 14133 14131 14133      1
 14134 14131 14134      1
 14135 14132 14135      1
 14136 14132 14136      1
 14137 14132 14137      1
 14138 14137 14138      1
 14139 14137 14139      1
 14140 14137 14140      1
 14141 14138 14141      1
 14142 14138 14142      1
 14143 14138 14143      1
 14144 14143 14144      1
 14145 14143 14145      1
 14146 14143 14146      1
 14147 14144 14147      1
 14148 14144 14148      1
 14149 14144 14149      1
 14150 14149 14150      1
 14151 14149 14151      1
 14152 14149 14152      1
 14153 14150 14153      1
 14154 14150 14154      1
 14155 14150 14155      1
 14156 14155 14156      1
 14157 14155 14157      1
 14158 14155 14158      1
 14159 14156 14159      1
 14160 14156 14160      1
 14161 14156 14161      1
 14162 14161 14162      1
 14163 14161 14163      1
 14164 14161 14164      1
 14165 14162 14165      1
 14166 14162 14166      1
 14167 14162 14167      1
 14168 14167 14168      1
 14169 14167 14169      1
 14170 14167 14170      1
 14171 14168 14171      1
 14172 14168 14172      1
 14173 14168 14173      1
 14174 14173 14174      1
 14175 14173 14175      1
 14176 14173 14176      1
 14177 14174 14177      1
 14178 14174 14178      1
 14179 14174 14179      1
 14180 14179 14180      1
 14181 14179 14181      1
 14182 14179 14182      1
 14183 14180 14183      1
 14184 14180 14184      1
 14185 14180 14185      1
 14186 14185 14186      1
 14187 14185 14187      1
 14188 14185 14188      1
 14189 14186 14189      1
 14190 14186 14190      1
 14191 14186 14191      1
 14192 14191 14192      1
 14193 14191 14193      1
 14194 14191 14194      1
 14195 14192 14195      1
 14196 14192 14196      1
 14197 14192 14197      1
 14198 14197 14198      1
 14199 14197 14199      1
 14200 14197 14200      1
 14201 14198 14201      1
 14202 14198 14202      1
 14203 14198 14203      1
 14204 14203 14204      1
 14205 14203 14205      1
 14206 14203 14206      1
 14207 14204 14207      1
 14208 14204 14208      1
 14209 14204 14209      1
 14210 14209 14210      1
 14211 14209 14211      1
 14212 14209 14212      1
 14213 14210 14213      1
 14214 14210 14214      1
 14215 14210 14215      1
 14216 14215 14216      1
 14217 14215 14217      1
 14218 14215 14218      1
 14219 14216 14219      1
 14220 14216 14220      1
 14221 14216 14221      1
 14222 14221 14222      1
 14223 14221 14223      1
 14224 14221 14224      1
 14225 14222 14225      1
 14226 14222 14226      1
 14227 14222 14227      1
 14228 14227 14228      1
 14229 14227 14229      1
 14230 14227 14230      1
 14231 14228 14231      1
 14232 14228 14232      1
 14233 14228 14233      1
 14234 14233 14234      1
 14235 14233 14235      1
 14236 14233 14236      1
 14237 14234 14237      1
 14238 14234 14238      1
 14239 14234 14239      1
 14240 14239 14240      1
 14241 14239 14241      1
 14242 14239 14242      1
 14243 14240 14243      1
 14244 14240 14244      1
 14245 14240 14245      1
 14246 14245 14246      1
 14247 14245 14247      1
 14248 14245 14248      1
 14249 14246 14249      1
 14250 14246 14250      1
 14251 14246 14251      1
 14252 14251 14252      1
 14253 14251 14253      1
 14254 14251 14254      1
 14255 14252 14255      1
 14256 14252 14256      1
 14257 14252 14257      1
 14258 14257 14258      1
 14259 14257 14259      1
 14260 14257 14260      1
 14261 14258 14261      1
 14262 14258 14262      1
 14263 14258 14263      1
 14264 14263 14264      1
 14265 14263 14265      1
 14266 14263 14266      1
 14267 14264 14267      1
 14268 14264 14268      1
 14269 14264 14269      1
 14270 14269 14270      1
 14271 14269 14271      1
 14272 14269 14272      1
 14273 14270 14273      1
 14274 14270 14274      1
 14275 14270 14275      1
 14276 14275 14276      1
 14277 14275 14277      1
 14278 14275 14278      1
 14279 14276 14279      1
 14280 14276 14280      1
 14281 14276 14281      1
 14282 14281 14282      1
 14283 14281 14283      1
 14284 14281 14284      1
 14285 14282 14285      1
 14286 14282 14286      1
 14287 14282 14287      1
 14288 14287 14288      1
 14289 14287 14289      1
 14290 14287 14290      1
 14291 14288 14291      1
 14292 14288 14292      1
 14293 14288 14293      1
 14294 14293 14294      1
 14295 14293 14295      1
 14296 14293 14296      1
 14297 14294 14297      1
 14298 14294 14298      1
 14299 14294 14299      1
 14300 14299 14300      1
 14301 14299 14301      1
 14302 14299 14302      1
 14303 14300 14303      1
 14304 14300 14304      1
 14305 14300 14305      1
 14306 14305 14306      1
 14307 14305 14307      1
 14308 14305 14308      1
 14309 14306 14309      1
 14310 14306 14310      1
 14311 14306 14311      1
 14312 14311 14312      1
 14313 14311 14313      1
 14314 14311 14314      1
 14315 14312 14315      1
 14316 14312 14316      1
 14317 14312 14317      1
 14318 14317 14318      1
 14319 14317 14319      1
 14320 14317 14320      1
 14321 14318 14321      1
 14322 14318 14322      1
 14323 14318 14323      1
 14324 14323 14324      1
 14325 14323 14325      1
 14326 14323 14326      1
 14327 14324 14327      1
 14328 14324 14328      1
 14329 14324 14329      1
 14330 14329 14330      1
 14331 14329 14331      1
 14332 14329 14332      1
 14333 14330 14333      1
 14334 14330 14334      1
 14335 14330 14335      1
 14336 14335 14336      1
 14337 14335 14337      1
 14338 14335 14338      1
 14339 14336 14339      1
 14340 14336 14340      1
 14341 14336 14341      1
 14342 14341 14342      1
 14343 14341 14343      1
 14344 14341 14344      1
 14345 14342 14345      1
 14346 14342 14346      1
 14347 14342 14347      1
 14348 14347 14348      1
 14349 14347 14349      1
 14350 14347 14350      1
 14351 14348 14351      1
 14352 14348 14352      1
 14353 14348 14353      1
 14354 14353 14354      1
 14355 14353 14355      1
 14356 14353 14356      1
 14357 14354 14357      1
 14358 14354 14358      1
 14359 14354 14359      1
 14360 14359 14360      1
 14361 14359 14361      1
 14362 14359 14362      1
 14363 14360 14363      1
 14364 14360 14364      1
 14365 14360 14365      1
 14366 14365 14366      1
 14367 14365 14367      1
 14368 14365 14368      1
 14369 14366 14369      1
 14370 14366 14370      1
 14371 14366 14371      1
 14372 14371 14372      1
 14373 14371 14373      1
 14374 14371 14374      1
 14375 14372 14375      1
 14376 14372 14376      1
 14377 14372 14377      1
 14378 14377 14378      1
 14379 14377 14379      1
 14380 14377 14380      1
 14381 14378 14381      1
 14382 14378 14382      1
 14383 14378 14383      1
 14384 14383 14384      1
 14385 14383 14385      1
 14386 14383 14386      1
 14387 14384 14387      1
 14388 14384 14388      1
 14389 14384 14389      1
 14390 14389 14390      1
 14391 14389 14391      1
 14392 14389 14392      1
 14393 14390 14393      1
 14394 14390 14394      1
 14395 14390 14395      1
 14396 14395 14396      1
 14397 14395 14397      1
 14398 14395 14398      1
 14399 14396 14399      1
 14400 14396 14400      1
 14401 14396 14401      1
 14402 14401 14402      1
 14403 14401 14403      1
 14404 14401 14404      1
 14405 14402 14405      1
 14406 14402 14406      1
 14407 14402 14407      1
 14408 14407 14408      1
 14409 14407 14409      1
 14410 14407 14410      1
 14411 14408 14411      1
 14412 14408 14412      1
 14413 14408 14413      1
 14414 14413 14414      1
 14415 14413 14415      1
 14416 14413 14416      1
 14417 14414 14417      1
 14418 14414 14418      1
 14419 14414 14419      1
 14420 14419 14420      1
 14421 14419 14421      1
 14422 14419 14422      1
 14423 14420 14423      1
 14424 14420 14424      1
 14425 14420 14425      1
 14426 14425 14426      1
 14427 14425 14427      1
 14428 14425 14428      1
 14429 14426 14429      1
 14430 14426 14430      1
 14431 14426 14431      1
 14432 14431 14432      1
 14433 14431 14433      1
 14434 14431 14434      1
 14435 14432 14435      1
 14436 14432 14436      1
 14437 14432 14437      1
 14438 14437 14438      1
 14439 14437 14439      1
 14440 14437 14440      1
 14441 14438 14441      1
 14442 14438 14442      1
 14443 14438 14443      1
 14444 14443 14444      1
 14445 14443 14445      1
 14446 14443 14446      1
 14447 14444 14447      1
 14448 14444 14448      1
 14449 14444 14449      1
 14450 14449 14450      1
 14451 14449 14451      1
 14452 14449 14452      1
 14453 14450 14453      1
 14454 14450 14454      1
 14455 14450 14455      1
 14456 14455 14456      1
 14457 14455 14457      1
 14458 14455 14458      1
 14459 14456 14459      1
 14460 14456 14460      1
 14461 14456 14461      1
 14462 14461 14462      1
 14463 14461 14463      1
 14464 14461 14464      1
 14465 14462 14465      1
 14466 14462 14466      1
 14467 14462 14467      1
 14468 14467 14468      1
 14469 14467 14469      1
 14470 14467 14470      1
 14471 14468 14471      1
 14472 14468 14472      1
 14473 14468 14473      1
 14474 14473 14474      1
 14475 14473 14475      1
 14476 14473 14476      1
 14477 14474 14477      1
 14478 14474 14478      1
 14479 14474 14479      1
 14480 14479 14480      1
 14481 14479 14481      1
 14482 14479 14482      1
 14483 14480 14483      1
 14484 14480 14484      1
 14485 14480 14485      1
 14486 14485 14486      1
 14487 14485 14487      1
 14488 14485 14488      1
 14489 14486 14489      1
 14490 14486 14490      1
 14491 14486 14491      1
 14492 14491 14492      1
 14493 14491 14493      1
 14494 14491 14494      1
 14495 14492 14495      1
 14496 14492 14496      1
 14497 14492 14497      1
 14498 14497 14498      1
 14499 14497 14499      1
 14500 14497 14500      1
 14501 14498 14501      1
 14502 14498 14502      1
 14503 14498 14503      1
 14504 14503 14504      1
 14505 14503 14505      1
 14506 14503 14506      1
 14507 14504 14507      1
 14508 14504 14508      1
 14509 14504 14509      1
 14510 14509 14510      1
 14511 14509 14511      1
 14512 14509 14512      1
 14513 14510 14513      1
 14514 14510 14514      1
 14515 14510 14515      1
 14516 14515 14516      1
 14517 14515 14517      1
 14518 14515 14518      1
 14519 14516 14519      1
 14520 14516 14520      1
 14521 14516 14521      1
 14522 14521 14522      1
 14523 14521 14523      1
 14524 14521 14524      1
 14525 14522 14525      1
 14526 14522 14526      1
 14527 14522 14527      1
 14528 14527 14528      1
 14529 14527 14529      1
 14530 14527 14530      1
 14531 14528 14531      1
 14532 14528 14532      1
 14533 14528 14533      1
 14534 14533 14534      1
 14535 14533 14535      1
 14536 14533 14536      1
 14537 14534 14537      1
 14538 14534 14538      1
 14539 14534 14539      1
 14540 14539 14540      1
 14541 14539 14541      1
 14542 14539 14542      1
 14543 14540 14543      1
 14544 14540 14544      1
 14545 14540 14545      1
 14546 14545 14546      1
 14547 14545 14547      1
 14548 14545 14548      1
 14549 14546 14549      1
 14550 14546 14550      1
 14551 14546 14551      1
 14552 14551 14552      1
 14553 14551 14553      1
 14554 14551 14554      1
 14555 14552 14555      1
 14556 14552 14556      1
 14557 14552 14557      1
 14558 14557 14558      1
 14559 14557 14559      1
 14560 14557 14560      1
 14561 14558 14561      1
 14562 14558 14562      1
 14563 14558 14563      1
 14564 14563 14564      1
 14565 14563 14565      1
 14566 14563 14566      1
 14567 14564 14567      1
 14568 14564 14568      1
 14569 14564 14569      1
 14570 14569 14570      1
 14571 14569 14571      1
 14572 14569 14572      1
 14573 14570 14573      1
 14574 14570 14574      1
 14575 14570 14575      1
 14576 14575 14576      1
 14577 14575 14577      1
 14578 14575 14578      1
 14579 14576 14579      1
 14580 14576 14580      1
 14581 14576 14581      1
 14582 14581 14582      1
 14583 14581 14583      1
 14584 14581 14584      1
 14585 14582 14585      1
 14586 14582 14586      1
 14587 14582 14587      1
 14588 14587 14588      1
 14589 14587 14589      1
 14590 14587 14590      1
 14591 14588 14591      1
 14592 14588 14592      1
 14593 14588 14593      1
 14594 14593 14594      1
 14595 14593 14595      1
 14596 14593 14596      1
 14597 14594 14597      1
 14598 14594 14598      1
 14599 14594 14599      1
 14600 14599 14600      1
 14601 14599 14601      1
 14602 14599 14602      1
 14603 14600 14603      1
 14604 14600 14604      1
 14605 14600 14605      1
 14606 14605 14606      1
 14607 14605 14607      1
 14608 14605 14608      1
 14609 14606 14609      1
 14610 14606 14610      1
 14611 14606 14611      1
 14612 14611 14612      1
 14613 14611 14613      1
 14614 14611 14614      1
 14615 14612 14615      1
 14616 14612 14616      1
 14617 14612 14617      1
 14618 14617 14618      1
 14619 14617 14619      1
 14620 14617 14620      1
 14621 14618 14621      1
 14622 14618 14622      1
 14623 14618 14623      1
 14624 14623 14624      1
 14625 14623 14625      1
 14626 14623 14626      1
 14627 14624 14627      1
 14628 14624 14628      1
 14629 14624 14629      1
 14630 14629 14630      1
 14631 14629 14631      1
 14632 14629 14632      1
 14633 14630 14633      1
 14634 14630 14634      1
 14635 14630 14635      1
 14636 14635 14636      1
 14637 14635 14637      1
 14638 14635 14638      1
 14639 14636 14639      1
 14640 14636 14640      1
 14641 14636 14641      1
 14642 14641 14642      1
 14643 14641 14643      1
 14644 14641 14644      1
 14645 14642 14645      1
 14646 14642 14646      1
 14647 14642 14647      1
 14648 14647 14648      1
 14649 14647 14649      1
 14650 14647 14650      1
 14651 14648 14651      1
 14652 14648 14652      1
 14653 14648 14653      1
 14654 14653 14654      1
 14655 14653 14655      1
 14656 14653 14656      1
 14657 14654 14657      1
 14658 14654 14658      1
 14659 14654 14659      1
 14660 14659 14660      1
 14661 14659 14661      1
 14662 14659 14662      1
 14663 14660 14663      1
 14664 14660 14664      1
 14665 14660 14665      1
 14666 14665 14666      1
 14667 14665 14667      1
 14668 14665 14668      1
 14669 14666 14669      1
 14670 14666 14670      1
 14671 14666 14671      1
 14672 14671 14672      1
 14673 14671 14673      1
 14674 14671 14674      1
 14675 14672 14675      1
 14676 14672 14676      1
 14677 14672 14677      1
 14678 14677 14678      1
 14679 14677 14679      1
 14680 14677 14680      1
 14681 14678 14681      1
 14682 14678 14682      1
 14683 14678 14683      1
 14684 14683 14684      1
 14685 14683 14685      1
 14686 14683 14686      1
 14687 14684 14687      1
 14688 14684 14688      1
 14689 14684 14689      1
 14690 14689 14690      1
 14691 14689 14691      1
 14692 14689 14692      1
 14693 14690 14693      1
 14694 14690 14694      1
 14695 14690 14695      1
 14696 14695 14696      1
 14697 14695 14697      1
 14698 14695 14698      1
 14699 14696 14699      1
 14700 14696 14700      1
 14701 14696 14701      1
 14702 14701 14702      1
 14703 14701 14703      1
 14704 14701 14704      1
 14705 14702 14705      1
 14706 14702 14706      1
 14707 14702 14707      1
 14708 14707 14708      1
 14709 14707 14709      1
 14710 14707 14710      1
 14711 14708 14711      1
 14712 14708 14712      1
 14713 14708 14713      1
 14714 14713 14714      1
 14715 14713 14715      1
 14716 14713 14716      1
 14717 14714 14717      1
 14718 14714 14718      1
 14719 14714 14719      1
 14720 14719 14720      1
 14721 14719 14721      1
 14722 14719 14722      1
 14723 14720 14723      1
 14724 14720 14724      1
 14725 14720 14725      1
 14726 14725 14726      1
 14727 14725 14727      1
 14728 14725 14728      1
 14729 14726 14729      1
 14730 14726 14730      1
 14731 14726 14731      1
 14732 14731 14732      1
 14733 14731 14733      1
 14734 14731 14734      1
 14735 14732 14735      1
 14736 14732 14736      1
 14737 14732 14737      1
 14738 14737 14738      1
 14739 14737 14739      1
 14740 14737 14740      1
 14741 14738 14741      1
 14742 14738 14742      1
 14743 14738 14743      1
 14744 14743 14744      1
 14745 14743 14745      1
 14746 14743 14746      1
 14747 14744 14747      1
 14748 14744 14748      1
 14749 14744 14749      1
 14750 14749 14750      1
 14751 14749 14751      1
 14752 14749 14752      1
 14753 14750 14753      1
 14754 14750 14754      1
 14755 14750 14755      1
 14756 14755 14756      1
 14757 14755 14757      1
 14758 14755 14758      1
 14759 14756 14759      1
 14760 14756 14760      1
 14761 14756 14761      1
 14762 14761 14762      1
 14763 14761 14763      1
 14764 14761 14764      1
 14765 14762 14765      1
 14766 14762 14766      1
 14767 14762 14767      1
 14768 14767 14768      1
 14769 14767 14769      1
 14770 14767 14770      1
 14771 14768 14771      1
 14772 14768 14772      1
 14773 14768 14773      1
 14774 14773 14774      1
 14775 14773 14775      1
 14776 14773 14776      1
 14777 14774 14777      1
 14778 14774 14778      1
 14779 14774 14779      1
 14780 14779 14780      1
 14781 14779 14781      1
 14782 14779 14782      1
 14783 14780 14783      1
 14784 14780 14784      1
 14785 14780 14785      1
 14786 14785 14786      1
 14787 14785 14787      1
 14788 14785 14788      1
 14789 14786 14789      1
 14790 14786 14790      1
 14791 14786 14791      1
 14792 14791 14792      1
 14793 14791 14793      1
 14794 14791 14794      1
 14795 14792 14795      1
 14796 14792 14796      1
 14797 14792 14797      1
 14798 14797 14798      1
 14799 14797 14799      1
 14800 14797 14800      1
 14801 14798 14801      1
 14802 14798 14802      1
 14803 14798 14803      1
 14804 14803 14804      1
 14805 14803 14805      1
 14806 14803 14806      1
 14807 14804 14807      1
 14808 14804 14808      1
 14809 14804 14809      1
 14810 14809 14810      1
 14811 14809 14811      1
 14812 14809 14812      1
 14813 14810 14813      1
 14814 14810 14814      1
 14815 14810 14815      1
 14816 14815 14816      1
 14817 14815 14817      1
 14818 14815 14818      1
 14819 14816 14819      1
 14820 14816 14820      1
 14821 14816 14821      1
 14822 14821 14822      1
 14823 14821 14823      1
 14824 14821 14824      1
 14825 14822 14825      1
 14826 14822 14826      1
 14827 14822 14827      1
 14828 14827 14828      1
 14829 14827 14829      1
 14830 14827 14830      1
 14831 14828 14831      1
 14832 14828 14832      1
 14833 14828 14833      1
 14834 14833 14834      1
 14835 14833 14835      1
 14836 14833 14836      1
 14837 14834 14837      1
 14838 14834 14838      1
 14839 14834 14839      1
 14840 14839 14840      1
 14841 14839 14841      1
 14842 14839 14842      1
 14843 14840 14843      1
 14844 14840 14844      1
 14845 14840 14845      1
 14846 14845 14846      1
 14847 14845 14847      1
 14848 14845 14848      1
 14849 14846 14849      1
 14850 14846 14850      1
 14851 14846 14851      1
 14852 14851 14852      1
 14853 14851 14853      1
 14854 14851 14854      1
 14855 14852 14855      1
 14856 14852 14856      1
 14857 14852 14857      1
 14858 14857 14858      1
 14859 14857 14859      1
 14860 14857 14860      1
 14861 14858 14861      1
 14862 14858 14862      1
 14863 14858 14863      1
 14864 14863 14864      1
 14865 14863 14865      1
 14866 14863 14866      1
 14867 14864 14867      1
 14868 14864 14868      1
 14869 14864 14869      1
 14870 14869 14870      1
 14871 14869 14871      1
 14872 14869 14872      1
 14873 14870 14873      1
 14874 14870 14874      1
 14875 14870 14875      1
 14876 14875 14876      1
 14877 14875 14877      1
 14878 14875 14878      1
 14879 14876 14879      1
 14880 14876 14880      1
 14881 14876 14881      1
 14882 14881 14882      1
 14883 14881 14883      1
 14884 14881 14884      1
 14885 14882 14885      1
 14886 14882 14886      1
 14887 14882 14887      1
 14888 14887 14888      1
 14889 14887 14889      1
 14890 14887 14890      1
 14891 14888 14891      1
 14892 14888 14892      1
 14893 14888 14893      1
 14894 14893 14894      1
 14895 14893 14895      1
 14896 14893 14896      1
 14897 14894 14897      1
 14898 14894 14898      1
 14899 14894 14899      1
 14900 14899 14900      1
 14901 14899 14901      1
 14902 14899 14902      1
 14903 14900 14903      1
 14904 14900 14904      1
 14905 14900 14905      1
 14906 14905 14906      1
 14907 14905 14907      1
 14908 14905 14908      1
 14909 14906 14909      1
 14910 14906 14910      1
 14911 14906 14911      1
 14912 14911 14912      1
 14913 14911 14913      1
 14914 14911 14914      1
 14915 14912 14915      1
 14916 14912 14916      1
 14917 14912 14917      1
 14918 14917 14918      1
 14919 14917 14919      1
 14920 14917 14920      1
 14921 14918 14921      1
 14922 14918 14922      1
 14923 14918 14923      1
 14924 14923 14924      1
 14925 14923 14925      1
 14926 14923 14926      1
 14927 14924 14927      1
 14928 14924 14928      1
 14929 14924 14929      1
 14930 14929 14930      1
 14931 14929 14931      1
 14932 14929 14932      1
 14933 14930 14933      1
 14934 14930 14934      1
 14935 14930 14935      1
 14936 14935 14936      1
 14937 14935 14937      1
 14938 14935 14938      1
 14939 14936 14939      1
 14940 14936 14940      1
 14941 14936 14941      1
 14942 14941 14942      1
 14943 14941 14943      1
 14944 14941 14944      1
 14945 14942 14945      1
 14946 14942 14946      1
 14947 14942 14947      1
 14948 14947 14948      1
 14949 14947 14949      1
 14950 14947 14950      1
 14951 14948 14951      1
 14952 14948 14952      1
 14953 14948 14953      1
 14954 14953 14954      1
 14955 14953 14955      1
 14956 14953 14956      1
 14957 14954 14957      1
 14958 14954 14958      1
 14959 14954 14959      1
 14960 14959 14960      1
 14961 14959 14961      1
 14962 14959 14962      1
 14963 14960 14963      1
 14964 14960 14964      1
 14965 14960 14965      1
 14966 14965 14966      1
 14967 14965 14967      1
 14968 14965 14968      1
 14969 14966 14969      1
 14970 14966 14970      1
 14971 14966 14971      1
 14972 14971 14972      1
 14973 14971 14973      1
 14974 14971 14974      1
 14975 14972 14975      1
 14976 14972 14976      1
 14977 14972 14977      1
 14978 14977 14978      1
 14979 14977 14979      1
 14980 14977 14980      1
 14981 14978 14981      1
 14982 14978 14982      1
 14983 14978 14983      1
 14984 14983 14984      1
 14985 14983 14985      1
 14986 14983 14986      1
 14987 14984 14987      1
 14988 14984 14988      1
 14989 14984 14989      1
 14990 14989 14990      1
 14991 14989 14991      1
 14992 14989 14992      1
 14993 14990 14993      1
 14994 14990 14994      1
 14995 14990 14995      1
 14996 14995 14996      1
 14997 14995 14997      1
 14998 14995 14998      1
 14999 14996 14999      1
 15000 14996 15000      1
 15001 14996 15001      1
 15002 15001 15002      1
 15003 15001 15003      1
 15004 15001 15004      1
 15005 15002 15005      1
 15006 15002 15006      1
 15007 15002 15007      1
 15008 15007 15008      1
 15009 15007 15009      1
 15010 15007 15010      1
 15011 15008 15011      1
 15012 15008 15012      1
 15013 15008 15013      1
 15014 15013 15014      1
 15015 15013 15015      1
 15016 15013 15016      1
 15017 15014 15017      1
 15018 15014 15018      1
 15019 15014 15019      1
 15020 15019 15020      1
 15021 15019 15021      1
 15022 15019 15022      1
 15023 15020 15023      1
 15024 15020 15024      1
 15025 15020 15025      1
 15026 15025 15026      1
 15027 15025 15027      1
 15028 15025 15028      1
 15029 15026 15029      1
 15030 15026 15030      1
 15031 15026 15031      1
 15032 15031 15032      1
 15033 15031 15033      1
 15034 15031 15034      1
 15035 15032 15035      1
 15036 15032 15036      1
 15037 15032 15037      1
 15038 15037 15038      1
 15039 15037 15039      1
 15040 15037 15040      1
 15041 15038 15041      1
 15042 15038 15042      1
 15043 15038 15043      1
 15044 15043 15044      1
 15045 15043 15045      1
 15046 15043 15046      1
 15047 15044 15047      1
 15048 15044 15048      1
 15049 15044 15049      1
 15050 15049 15050      1
 15051 15049 15051      1
 15052 15049 15052      1
 15053 15050 15053      1
 15054 15050 15054      1
 15055 15050 15055      1
 15056 15055 15056      1
 15057 15055 15057      1
 15058 15055 15058      1
 15059 15056 15059      1
 15060 15056 15060      1
 15061 15056 15061      1
 15062 15061 15062      1
 15063 15061 15063      1
 15064 15061 15064      1
 15065 15062 15065      1
 15066 15062 15066      1
 15067 15062 15067      1
 15068 15067 15068      1
 15069 15067 15069      1
 15070 15067 15070      1
 15071 15068 15071      1
 15072 15068 15072      1
 15073 15068 15073      1
 15074 15073 15074      1
 15075 15073 15075      1
 15076 15073 15076      1
 15077 15074 15077      1
 15078 15074 15078      1
 15079 15074 15079      1
 15080 15079 15080      1
 15081 15079 15081      1
 15082 15079 15082      1
 15083 15080 15083      1
 15084 15080 15084      1
 15085 15080 15085      1
 15086 15085 15086      1
 15087 15085 15087      1
 15088 15085 15088      1
 15089 15086 15089      1
 15090 15086 15090      1
 15091 15086 15091      1
 15092 15091 15092      1
 15093 15091 15093      1
 15094 15091 15094      1
 15095 15092 15095      1
 15096 15092 15096      1
 15097 15092 15097      1
 15098 15097 15098      1
 15099 15097 15099      1
 15100 15097 15100      1
 15101 15098 15101      1
 15102 15098 15102      1
 15103 15098 15103      1
 15104 15103 15104      1
 15105 15103 15105      1
 15106 15103 15106      1
 15107 15104 15107      1
 15108 15104 15108      1
 15109 15104 15109      1
 15110 15109 15110      1
 15111 15109 15111      1
 15112 15109 15112      1
 15113 15110 15113      1
 15114 15110 15114      1
 15115 15110 15115      1
 15116 15115 15116      1
 15117 15115 15117      1
 15118 15115 15118      1
 15119 15116 15119      1
 15120 15116 15120      1
 15121 15116 15121      1
 15122 15121 15122      1
 15123 15121 15123      1
 15124 15121 15124      1
 15125 15122 15125      1
 15126 15122 15126      1
 15127 15122 15127      1
 15128 15127 15128      1
 15129 15127 15129      1
 15130 15127 15130      1
 15131 15128 15131      1
 15132 15128 15132      1
 15133 15128 15133      1
 15134 15133 15134      1
 15135 15133 15135      1
 15136 15133 15136      1
 15137 15134 15137      1
 15138 15134 15138      1
 15139 15134 15139      1
 15140 15139 15140      1
 15141 15139 15141      1
 15142 15139 15142      1
 15143 15140 15143      1
 15144 15140 15144      1
 15145 15140 15145      1
 15146 15145 15146      1
 15147 15145 15147      1
 15148 15145 15148      1
 15149 15146 15149      1
 15150 15146 15150      1
 15151 15146 15151      1
 15152 15151 15152      1
 15153 15151 15153      1
 15154 15151 15154      1
 15155 15152 15155      1
 15156 15152 15156      1
 15157 15152 15157      1
 15158 15157 15158      1
 15159 15157 15159      1
 15160 15157 15160      1
 15161 15158 15161      1
 15162 15158 15162      1
 15163 15158 15163      1
 15164 15163 15164      1
 15165 15163 15165      1
 15166 15163 15166      1
 15167 15164 15167      1
 15168 15164 15168      1
 15169 15164 15169      1
 15170 15169 15170      1
 15171 15169 15171      1
 15172 15169 15172      1
 15173 15170 15173      1
 15174 15170 15174      1
 15175 15170 15175      1
 15176 15175 15176      1
 15177 15175 15177      1
 15178 15175 15178      1
 15179 15176 15179      1
 15180 15176 15180      1
 15181 15176 15181      1
 15182 15181 15182      1
 15183 15181 15183      1
 15184 15181 15184      1
 15185 15182 15185      1
 15186 15182 15186      1
 15187 15182 15187      1
 15188 15187 15188      1
 15189 15187 15189      1
 15190 15187 15190      1
 15191 15188 15191      1
 15192 15188 15192      1
 15193 15188 15193      1
 15194 15193 15194      1
 15195 15193 15195      1
 15196 15193 15196      1
 15197 15194 15197      1
 15198 15194 15198      1
 15199 15194 15199      1
 15200 15199 15200      1
 15201 15199 15201      1
 15202 15199 15202      1
 15203 15200 15203      1
 15204 15200 15204      1
 15205 15200 15205      1
 15206 15205 15206      1
 15207 15205 15207      1
 15208 15205 15208      1
 15209 15206 15209      1
 15210 15206 15210      1
 15211 15206 15211      1
 15212 15211 15212      1
 15213 15211 15213      1
 15214 15211 15214      1
 15215 15212 15215      1
 15216 15212 15216      1
 15217 15212 15217      1
 15218 15217 15218      1
 15219 15217 15219      1
 15220 15217 15220      1
 15221 15218 15221      1
 15222 15218 15222      1
 15223 15218 15223      1
 15224 15223 15224      1
 15225 15223 15225      1
 15226 15223 15226      1
 15227 15224 15227      1
 15228 15224 15228      1
 15229 15224 15229      1
 15230 15229 15230      1
 15231 15229 15231      1
 15232 15229 15232      1
 15233 15230 15233      1
 15234 15230 15234      1
 15235 15230 15235      1
 15236 15235 15236      1
 15237 15235 15237      1
 15238 15235 15238      1
 15239 15236 15239      1
 15240 15236 15240      1
 15241 15236 15241      1
 15242 15241 15242      1
 15243 15241 15243      1
 15244 15241 15244      1
 15245 15242 15245      1
 15246 15242 15246      1
 15247 15242 15247      1
 15248 15247 15248      1
 15249 15247 15249      1
 15250 15247 15250      1
 15251 15248 15251      1
 15252 15248 15252      1
 15253 15248 15253      1
 15254 15253 15254      1
 15255 15253 15255      1
 15256 15253 15256      1
 15257 15254 15257      1
 15258 15254 15258      1
 15259 15254 15259      1
 15260 15259 15260      1
 15261 15259 15261      1
 15262 15259 15262      1
 15263 15260 15263      1
 15264 15260 15264      1
 15265 15260 15265      1
 15266 15265 15266      1
 15267 15265 15267      1
 15268 15265 15268      1
 15269 15266 15269      1
 15270 15266 15270      1
 15271 15266 15271      1
 15272 15271 15272      1
 15273 15271 15273      1
 15274 15271 15274      1
 15275 15272 15275      1
 15276 15272 15276      1
 15277 15272 15277      1
 15278 15277 15278      1
 15279 15277 15279      1
 15280 15277 15280      1
 15281 15278 15281      1
 15282 15278 15282      1
 15283 15278 15283      1
 15284 15283 15284      1
 15285 15283 15285      1
 15286 15283 15286      1
 15287 15284 15287      1
 15288 15284 15288      1
 15289 15284 15289      1
 15290 15289 15290      1
 15291 15289 15291      1
 15292 15289 15292      1
 15293 15290 15293      1
 15294 15290 15294      1
 15295 15290 15295      1
 15296 15295 15296      1
 15297 15295 15297      1
 15298 15295 15298      1
 15299 15296 15299      1
 15300 15296 15300      1
 15301 15296 15301      1
 15302 15301 15302      1
 15303 15301 15303      1
 15304 15301 15304      1
 15305 15302 15305      1
 15306 15302 15306      1
 15307 15302 15307      1
 15308 15307 15308      1
 15309 15307 15309      1
 15310 15307 15310      1
 15311 15308 15311      1
 15312 15308 15312      1
 15313 15308 15313      1
 15314 15313 15314      1
 15315 15313 15315      1
 15316 15313 15316      1
 15317 15314 15317      1
 15318 15314 15318      1
 15319 15314 15319      1
 15320 15319 15320      1
 15321 15319 15321      1
 15322 15319 15322      1
 15323 15320 15323      1
 15324 15320 15324      1
 15325 15320 15325      1
 15326 15325 15326      1
 15327 15325 15327      1
 15328 15325 15328      1
 15329 15326 15329      1
 15330 15326 15330      1
 15331 15326 15331      1
 15332 15331 15332      1
 15333 15331 15333      1
 15334 15331 15334      1
 15335 15332 15335      1
 15336 15332 15336      1
 15337 15332 15337      1
 15338 15337 15338      1
 15339 15337 15339      1
 15340 15337 15340      1
 15341 15338 15341      1
 15342 15338 15342      1
 15343 15338 15343      1
 15344 15343 15344      1
 15345 15343 15345      1
 15346 15343 15346      1
 15347 15344 15347      1
 15348 15344 15348      1
 15349 15344 15349      1
 15350 15349 15350      1
 15351 15349 15351      1
 15352 15349 15352      1
 15353 15350 15353      1
 15354 15350 15354      1
 15355 15350 15355      1
 15356 15355 15356      1
 15357 15355 15357      1
 15358 15355 15358      1
 15359 15356 15359      1
 15360 15356 15360      1
 15361 15356 15361      1
 15362 15361 15362      1
 15363 15361 15363      1
 15364 15361 15364      1
 15365 15362 15365      1
 15366 15362 15366      1
 15367 15362 15367      1
 15368 15367 15368      1
 15369 15367 15369      1
 15370 15367 15370      1
 15371 15368 15371      1
 15372 15368 15372      1
 15373 15368 15373      1
 15374 15373 15374      1
 15375 15373 15375      1
 15376 15373 15376      1
 15377 15374 15377      1
 15378 15374 15378      1
 15379 15374 15379      1
 15380 15379 15380      1
 15381 15379 15381      1
 15382 15379 15382      1
 15383 15380 15383      1
 15384 15380 15384      1
 15385 15380 15385      1
 15386 15385 15386      1
 15387 15385 15387      1
 15388 15385 15388      1
 15389 15386 15389      1
 15390 15386 15390      1
 15391 15386 15391      1
 15392 15391 15392      1
 15393 15391 15393      1
 15394 15391 15394      1
 15395 15392 15395      1
 15396 15392 15396      1
 15397 15392 15397      1
 15398 15397 15398      1
 15399 15397 15399      1
 15400 15397 15400      1
 15401 15398 15401      1
 15402 15398 15402      1
 15403 15398 15403      1
 15404 15403 15404      1
 15405 15403 15405      1
 15406 15403 15406      1
 15407 15404 15407      1
 15408 15404 15408      1
 15409 15404 15409      1
 15410 15409 15410      1
 15411 15409 15411      1
 15412 15409 15412      1
 15413 15410 15413      1
 15414 15410 15414      1
 15415 15410 15415      1
 15416 15415 15416      1
 15417 15415 15417      1
 15418 15415 15418      1
 15419 15416 15419      1
 15420 15416 15420      1
 15421 15416 15421      1
 15422 15421 15422      1
 15423 15421 15423      1
 15424 15421 15424      1
 15425 15422 15425      1
 15426 15422 15426      1
 15427 15422 15427      1
 15428 15427 15428      1
 15429 15427 15429      1
 15430 15427 15430      1
 15431 15428 15431      1
 15432 15428 15432      1
 15433 15428 15433      1
 15434 15433 15434      1
 15435 15433 15435      1
 15436 15433 15436      1
 15437 15434 15437      1
 15438 15434 15438      1
 15439 15434 15439      1
 15440 15439 15440      1
 15441 15439 15441      1
 15442 15439 15442      1
 15443 15440 15443      1
 15444 15440 15444      1
 15445 15440 15445      1
 15446 15445 15446      1
 15447 15445 15447      1
 15448 15445 15448      1
 15449 15446 15449      1
 15450 15446 15450      1
 15451 15446 15451      1
 15452 15451 15452      1
 15453 15451 15453      1
 15454 15451 15454      1
 15455 15452 15455      1
 15456 15452 15456      1
 15457 15452 15457      1
 15458 15457 15458      1
 15459 15457 15459      1
 15460 15457 15460      1
 15461 15458 15461      1
 15462 15458 15462      1
 15463 15458 15463      1
 15464 15463 15464      1
 15465 15463 15465      1
 15466 15463 15466      1
 15467 15464 15467      1
 15468 15464 15468      1
 15469 15464 15469      1
 15470 15469 15470      1
 15471 15469 15471      1
 15472 15469 15472      1
 15473 15470 15473      1
 15474 15470 15474      1
 15475 15470 15475      1
 15476 15475 15476      1
 15477 15475 15477      1
 15478 15475 15478      1
 15479 15476 15479      1
 15480 15476 15480      1
 15481 15476 15481      1
 15482 15481 15482      1
 15483 15481 15483      1
 15484 15481 15484      1
 15485 15482 15485      1
 15486 15482 15486      1
 15487 15482 15487      1
 15488 15487 15488      1
 15489 15487 15489      1
 15490 15487 15490      1
 15491 15488 15491      1
 15492 15488 15492      1
 15493 15488 15493      1
 15494 15493 15494      1
 15495 15493 15495      1
 15496 15493 15496      1
 15497 15494 15497      1
 15498 15494 15498      1
 15499 15494 15499      1
 15500 15499 15500      1
 15501 15499 15501      1
 15502 15499 15502      1
 15503 15500 15503      1
 15504 15500 15504      1
 15505 15500 15505      1
 15506 15505 15506      1
 15507 15505 15507      1
 15508 15505 15508      1
 15509 15506 15509      1
 15510 15506 15510      1
 15511 15506 15511      1
 15512 15511 15512      1
 15513 15511 15513      1
 15514 15511 15514      1
 15515 15512 15515      1
 15516 15512 15516      1
 15517 15512 15517      1
 15518 15517 15518      1
 15519 15517 15519      1
 15520 15517 15520      1
 15521 15518 15521      1
 15522 15518 15522      1
 15523 15518 15523      1
 15524 15523 15524      1
 15525 15523 15525      1
 15526 15523 15526      1
 15527 15524 15527      1
 15528 15524 15528      1
 15529 15524 15529      1
 15530 15529 15530      1
 15531 15529 15531      1
 15532 15529 15532      1
 15533 15530 15533      1
 15534 15530 15534      1
 15535 15530 15535      1
 15536 15535 15536      1
 15537 15535 15537      1
 15538 15535 15538      1
 15539 15536 15539      1
 15540 15536 15540      1
 15541 15536 15541      1
 15542 15541 15542      1
 15543 15541 15543      1
 15544 15541 15544      1
 15545 15542 15545      1
 15546 15542 15546      1
 15547 15542 15547      1
 15548 15547 15548      1
 15549 15547 15549      1
 15550 15547 15550      1
 15551 15548 15551      1
 15552 15548 15552      1
 15553 15548 15553      1
 15554 15553 15554      1
 15555 15553 15555      1
 15556 15553 15556      1
 15557 15554 15557      1
 15558 15554 15558      1
 15559 15554 15559      1
 15560 15559 15560      1
 15561 15559 15561      1
 15562 15559 15562      1
 15563 15560 15563      1
 15564 15560 15564      1
 15565 15560 15565      1
 15566 15565 15566      1
 15567 15565 15567      1
 15568 15565 15568      1
 15569 15566 15569      1
 15570 15566 15570      1
 15571 15566 15571      1
 15572 15571 15572      1
 15573 15571 15573      1
 15574 15571 15574      1
 15575 15572 15575      1
 15576 15572 15576      1
 15577 15572 15577      1
 15578 15577 15578      1
 15579 15577 15579      1
 15580 15577 15580      1
 15581 15578 15581      1
 15582 15578 15582      1
 15583 15578 15583      1
 15584 15583 15584      1
 15585 15583 15585      1
 15586 15583 15586      1
 15587 15584 15587      1
 15588 15584 15588      1
 15589 15584 15589      1
 15590 15589 15590      1
 15591 15589 15591      1
 15592 15589 15592      1
 15593 15590 15593      1
 15594 15590 15594      1
 15595 15590 15595      1
 15596 15595 15596      1
 15597 15595 15597      1
 15598 15595 15598      1
 15599 15596 15599      1
 15600 15596 15600      1
 15601 15596 15601      1
 15602 15601 15602      1
 15603 15601 15603      1
 15604 15601 15604      1
 15605 15602 15605      1
 15606 15602 15606      1
 15607 15602 15607      1
 15608 15607 15608      1
 15609 15607 15609      1
 15610 15607 15610      1
 15611 15608 15611      1
 15612 15608 15612      1
 15613 15608 15613      1
 15614 15613 15614      1
 15615 15613 15615      1
 15616 15613 15616      1
 15617 15614 15617      1
 15618 15614 15618      1
 15619 15614 15619      1
 15620 15619 15620      1
 15621 15619 15621      1
 15622 15619 15622      1
 15623 15620 15623      1
 15624 15620 15624      1
 15625 15620 15625      1
 15626 15625 15626      1
 15627 15625 15627      1
 15628 15625 15628      1
 15629 15626 15629      1
 15630 15626 15630      1
 15631 15626 15631      1
 15632 15631 15632      1
 15633 15631 15633      1
 15634 15631 15634      1
 15635 15632 15635      1
 15636 15632 15636      1
 15637 15632 15637      1
 15638 15637 15638      1
 15639 15637 15639      1
 15640 15637 15640      1
 15641 15638 15641      1
 15642 15638 15642      1
 15643 15638 15643      1
 15644 15643 15644      1
 15645 15643 15645      1
 15646 15643 15646      1
 15647 15644 15647      1
 15648 15644 15648      1
 15649 15644 15649      1
 15650 15649 15650      1
 15651 15649 15651      1
 15652 15649 15652      1
 15653 15650 15653      1
 15654 15650 15654      1
 15655 15650 15655      1
 15656 15655 15656      1
 15657 15655 15657      1
 15658 15655 15658      1
 15659 15656 15659      1
 15660 15656 15660      1
 15661 15656 15661      1
 15662 15661 15662      1
 15663 15661 15663      1
 15664 15661 15664      1
 15665 15662 15665      1
 15666 15662 15666      1
 15667 15662 15667      1
 15668 15667 15668      1
 15669 15667 15669      1
 15670 15667 15670      1
 15671 15668 15671      1
 15672 15668 15672      1
 15673 15668 15673      1
 15674 15673 15674      1
 15675 15673 15675      1
 15676 15673 15676      1
 15677 15674 15677      1
 15678 15674 15678      1
 15679 15674 15679      1
 15680 15679 15680      1
 15681 15679 15681      1
 15682 15679 15682      1
 15683 15680 15683      1
 15684 15680 15684      1
 15685 15680 15685      1
 15686 15685 15686      1
 15687 15685 15687      1
 15688 15685 15688      1
 15689 15686 15689      1
 15690 15686 15690      1
 15691 15686 15691      1
 15692 15691 15692      1
 15693 15691 15693      1
 15694 15691 15694      1
 15695 15692 15695      1
 15696 15692 15696      1
 15697 15692 15697      1
 15698 15697 15698      1
 15699 15697 15699      1
 15700 15697 15700      1
 15701 15698 15701      1
 15702 15698 15702      1
 15703 15698 15703      1
 15704 15703 15704      1
 15705 15703 15705      1
 15706 15703 15706      1
 15707 15704 15707      1
 15708 15704 15708      1
 15709 15704 15709      1
 15710 15709 15710      1
 15711 15709 15711      1
 15712 15709 15712      1
 15713 15710 15713      1
 15714 15710 15714      1
 15715 15710 15715      1
 15716 15715 15716      1
 15717 15715 15717      1
 15718 15715 15718      1
 15719 15716 15719      1
 15720 15716 15720      1
 15721 15716 15721      1
 15722 15721 15722      1
 15723 15721 15723      1
 15724 15721 15724      1
 15725 15722 15725      1
 15726 15722 15726      1
 15727 15722 15727      1
 15728 15727 15728      1
 15729 15727 15729      1
 15730 15727 15730      1
 15731 15728 15731      1
 15732 15728 15732      1
 15733 15728 15733      1
 15734 15733 15734      1
 15735 15733 15735      1
 15736 15733 15736      1
 15737 15734 15737      1
 15738 15734 15738      1
 15739 15734 15739      1
 15740 15739 15740      1
 15741 15739 15741      1
 15742 15739 15742      1
 15743 15740 15743      1
 15744 15740 15744      1
 15745 15740 15745      1
 15746 15745 15746      1
 15747 15745 15747      1
 15748 15745 15748      1
 15749 15746 15749      1
 15750 15746 15750      1
 15751 15746 15751      1
 15752 15751 15752      1
 15753 15751 15753      1
 15754 15751 15754      1
 15755 15752 15755      1
 15756 15752 15756      1
 15757 15752 15757      1
 15758 15757 15758      1
 15759 15757 15759      1
 15760 15757 15760      1
 15761 15758 15761      1
 15762 15758 15762      1
 15763 15758 15763      1
 15764 15763 15764      1
 15765 15763 15765      1
 15766 15763 15766      1
 15767 15764 15767      1
 15768 15764 15768      1
 15769 15764 15769      1
 15770 15769 15770      1
 15771 15769 15771      1
 15772 15769 15772      1
 15773 15770 15773      1
 15774 15770 15774      1
 15775 15770 15775      1
 15776 15775 15776      1
 15777 15775 15777      1
 15778 15775 15778      1
 15779 15776 15779      1
 15780 15776 15780      1
 15781 15776 15781      1
 15782 15781 15782      1
 15783 15781 15783      1
 15784 15781 15784      1
 15785 15782 15785      1
 15786 15782 15786      1
 15787 15782 15787      1
 15788 15787 15788      1
 15789 15787 15789      1
 15790 15787 15790      1
 15791 15788 15791      1
 15792 15788 15792      1
 15793 15788 15793      1
 15794 15793 15794      1
 15795 15793 15795      1
 15796 15793 15796      1
 15797 15794 15797      1
 15798 15794 15798      1
 15799 15794 15799      1
 15800 15799 15800      1
 15801 15799 15801      1
 15802 15799 15802      1
 15803 15800 15803      1
 15804 15800 15804      1
 15805 15800 15805      1
 15806 15805 15806      1
 15807 15805 15807      1
 15808 15805 15808      1
 15809 15806 15809      1
 15810 15806 15810      1
 15811 15806 15811      1
 15812 15811 15812      1
 15813 15811 15813      1
 15814 15811 15814      1
 15815 15812 15815      1
 15816 15812 15816      1
 15817 15812 15817      1
 15818 15817 15818      1
 15819 15817 15819      1
 15820 15817 15820      1
 15821 15818 15821      1
 15822 15818 15822      1
 15823 15818 15823      1
 15824 15823 15824      1
 15825 15823 15825      1
 15826 15823 15826      1
 15827 15824 15827      1
 15828 15824 15828      1
 15829 15824 15829      1
 15830 15829 15830      1
 15831 15829 15831      1
 15832 15829 15832      1
 15833 15830 15833      1
 15834 15830 15834      1
 15835 15830 15835      1
 15836 15835 15836      1
 15837 15835 15837      1
 15838 15835 15838      1
 15839 15836 15839      1
 15840 15836 15840      1
 15841 15836 15841      1
 15842 15841 15842      1
 15843 15841 15843      1
 15844 15841 15844      1
 15845 15842 15845      1
 15846 15842 15846      1
 15847 15842 15847      1
 15848 15847 15848      1
 15849 15847 15849      1
 15850 15847 15850      1
 15851 15848 15851      1
 15852 15848 15852      1
 15853 15848 15853      1
 15854 15853 15854      1
 15855 15853 15855      1
 15856 15853 15856      1
 15857 15854 15857      1
 15858 15854 15858      1
 15859 15854 15859      1
 15860 15859 15860      1
 15861 15859 15861      1
 15862 15859 15862      1
 15863 15860 15863      1
 15864 15860 15864      1
 15865 15860 15865      1
 15866 15865 15866      1
 15867 15865 15867      1
 15868 15865 15868      1
 15869 15866 15869      1
 15870 15866 15870      1
 15871 15866 15871      1
 15872 15871 15872      1
 15873 15871 15873      1
 15874 15871 15874      1
 15875 15872 15875      1
 15876 15872 15876      1
 15877 15872 15877      1
 15878 15877 15878      1
 15879 15877 15879      1
 15880 15877 15880      1
 15881 15878 15881      1
 15882 15878 15882      1
 15883 15878 15883      1
 15884 15883 15884      1
 15885 15883 15885      1
 15886 15883 15886      1
 15887 15884 15887      1
 15888 15884 15888      1
 15889 15884 15889      1
 15890 15889 15890      1
 15891 15889 15891      1
 15892 15889 15892      1
 15893 15890 15893      1
 15894 15890 15894      1
 15895 15890 15895      1
 15896 15895 15896      1
 15897 15895 15897      1
 15898 15895 15898      1
 15899 15896 15899      1
 15900 15896 15900      1
 15901 15896 15901      1
 15902 15901 15902      1
 15903 15901 15903      1
 15904 15901 15904      1
 15905 15902 15905      1
 15906 15902 15906      1
 15907 15902 15907      1
 15908 15907 15908      1
 15909 15907 15909      1
 15910 15907 15910      1
 15911 15908 15911      1
 15912 15908 15912      1
 15913 15908 15913      1
 15914 15913 15914      1
 15915 15913 15915      1
 15916 15913 15916      1
 15917 15914 15917      1
 15918 15914 15918      1
 15919 15914 15919      1
 15920 15919 15920      1
 15921 15919 15921      1
 15922 15919 15922      1
 15923 15920 15923      1
 15924 15920 15924      1
 15925 15920 15925      1
 15926 15925 15926      1
 15927 15925 15927      1
 15928 15925 15928      1
 15929 15926 15929      1
 15930 15926 15930      1
 15931 15926 15931      1
 15932 15931 15932      1
 15933 15931 15933      1
 15934 15931 15934      1
 15935 15932 15935      1
 15936 15932 15936      1
 15937 15932 15937      1
 15938 15937 15938      1
 15939 15937 15939      1
 15940 15937 15940      1
 15941 15938 15941      1
 15942 15938 15942      1
 15943 15938 15943      1
 15944 15943 15944      1
 15945 15943 15945      1
 15946 15943 15946      1
 15947 15944 15947      1
 15948 15944 15948      1
 15949 15944 15949      1
 15950 15949 15950      1
 15951 15949 15951      1
 15952 15949 15952      1
 15953 15950 15953      1
 15954 15950 15954      1
 15955 15950 15955      1
 15956 15955 15956      1
 15957 15955 15957      1
 15958 15955 15958      1
 15959 15956 15959      1
 15960 15956 15960      1
 15961 15956 15961      1
 15962 15961 15962      1
 15963 15961 15963      1
 15964 15961 15964      1
 15965 15962 15965      1
 15966 15962 15966      1
 15967 15962 15967      1
 15968 15967 15968      1
 15969 15967 15969      1
 15970 15967 15970      1
 15971 15968 15971      1
 15972 15968 15972      1
 15973 15968 15973      1
 15974 15973 15974      1
 15975 15973 15975      1
 15976 15973 15976      1
 15977 15974 15977      1
 15978 15974 15978      1
 15979 15974 15979      1
 15980 15979 15980      1
 15981 15979 15981      1
 15982 15979 15982      1
 15983 15980 15983      1
 15984 15980 15984      1
 15985 15980 15985      1
 15986 15985 15986      1
 15987 15985 15987      1
 15988 15985 15988      1
 15989 15986 15989      1
 15990 15986 15990      1
 15991 15986 15991      1
 15992 15991 15992      1
 15993 15991 15993      1
 15994 15991 15994      1
 15995 15992 15995      1
 15996 15992 15996      1
 15997 15992 15997      1
 15998 15997 15998      1
 15999 15997 15999      1
 16000 15997 16000      1
 16001 15998 16001      1
 16002 15998 16002      1
 16003 15998 16003      1
 16004 16003 16004      1
 16005 16003 16005      1
 16006 16003 16006      1
 16007 16004 16007      1
 16008 16004 16008      1
 16009 16004 16009      1
 16010 16009 16010      1
 16011 16009 16011      1
 16012 16009 16012      1
 16013 16010 16013      1
 16014 16010 16014      1
 16015 16010 16015      1
 16016 16015 16016      1
 16017 16015 16017      1
 16018 16015 16018      1
 16019 16016 16019      1
 16020 16016 16020      1
 16021 16016 16021      1
 16022 16021 16022      1
 16023 16021 16023      1
 16024 16021 16024      1
 16025 16022 16025      1
 16026 16022 16026      1
 16027 16022 16027      1
 16028 16027 16028      1
 16029 16027 16029      1
 16030 16027 16030      1
 16031 16028 16031      1
 16032 16028 16032      1
 16033 16028 16033      1
 16034 16033 16034      1
 16035 16033 16035      1
 16036 16033 16036      1
 16037 16034 16037      1
 16038 16034 16038      1
 16039 16034 16039      1
 16040 16039 16040      1
 16041 16039 16041      1
 16042 16039 16042      1
 16043 16040 16043      1
 16044 16040 16044      1
 16045 16040 16045      1
 16046 16045 16046      1
 16047 16045 16047      1
 16048 16045 16048      1
 16049 16046 16049      1
 16050 16046 16050      1
 16051 16046 16051      1
 16052 16051 16052      1
 16053 16051 16053      1
 16054 16051 16054      1
 16055 16052 16055      1
 16056 16052 16056      1
 16057 16052 16057      1
 16058 16057 16058      1
 16059 16057 16059      1
 16060 16057 16060      1
 16061 16058 16061      1
 16062 16058 16062      1
 16063 16058 16063      1
 16064 16063 16064      1
 16065 16063 16065      1
 16066 16063 16066      1
 16067 16064 16067      1
 16068 16064 16068      1
 16069 16064 16069      1
 16070 16069 16070      1
 16071 16069 16071      1
 16072 16069 16072      1
 16073 16070 16073      1
 16074 16070 16074      1
 16075 16070 16075      1
 16076 16075 16076      1
 16077 16075 16077      1
 16078 16075 16078      1
 16079 16076 16079      1
 16080 16076 16080      1
 16081 16076 16081      1
 16082 16081 16082      1
 16083 16081 16083      1
 16084 16081 16084      1
 16085 16082 16085      1
 16086 16082 16086      1
 16087 16082 16087      1
 16088 16087 16088      1
 16089 16087 16089      1
 16090 16087 16090      1
 16091 16088 16091      1
 16092 16088 16092      1
 16093 16088 16093      1
 16094 16093 16094      1
 16095 16093 16095      1
 16096 16093 16096      1
 16097 16094 16097      1
 16098 16094 16098      1
 16099 16094 16099      1
 16100 16099 16100      1
 16101 16099 16101      1
 16102 16099 16102      1
 16103 16100 16103      1
 16104 16100 16104      1
 16105 16100 16105      1
 16106 16105 16106      1
 16107 16105 16107      1
 16108 16105 16108      1
 16109 16106 16109      1
 16110 16106 16110      1
 16111 16106 16111      1
 16112 16111 16112      1
 16113 16111 16113      1
 16114 16111 16114      1
 16115 16112 16115      1
 16116 16112 16116      1
 16117 16112 16117      1
 16118 16117 16118      1
 16119 16117 16119      1
 16120 16117 16120      1
 16121 16118 16121      1
 16122 16118 16122      1
 16123 16118 16123      1
 16124 16123 16124      1
 16125 16123 16125      1
 16126 16123 16126      1
 16127 16124 16127      1
 16128 16124 16128      1
 16129 16124 16129      1
 16130 16129 16130      1
 16131 16129 16131      1
 16132 16129 16132      1
 16133 16130 16133      1
 16134 16130 16134      1
 16135 16130 16135      1
 16136 16135 16136      1
 16137 16135 16137      1
 16138 16135 16138      1
 16139 16136 16139      1
 16140 16136 16140      1
 16141 16136 16141      1
 16142 16141 16142      1
 16143 16141 16143      1
 16144 16141 16144      1
 16145 16142 16145      1
 16146 16142 16146      1
 16147 16142 16147      1
 16148 16147 16148      1
 16149 16147 16149      1
 16150 16147 16150      1
 16151 16148 16151      1
 16152 16148 16152      1
 16153 16148 16153      1
 16154 16153 16154      1
 16155 16153 16155      1
 16156 16153 16156      1
 16157 16154 16157      1
 16158 16154 16158      1
 16159 16154 16159      1
 16160 16159 16160      1
 16161 16159 16161      1
 16162 16159 16162      1
 16163 16160 16163      1
 16164 16160 16164      1
 16165 16160 16165      1
 16166 16165 16166      1
 16167 16165 16167      1
 16168 16165 16168      1
 16169 16166 16169      1
 16170 16166 16170      1
 16171 16166 16171      1
 16172 16171 16172      1
 16173 16171 16173      1
 16174 16171 16174      1
 16175 16172 16175      1
 16176 16172 16176      1
 16177 16172 16177      1
 16178 16177 16178      1
 16179 16177 16179      1
 16180 16177 16180      1
 16181 16178 16181      1
 16182 16178 16182      1
 16183 16178 16183      1
 16184 16183 16184      1
 16185 16183 16185      1
 16186 16183 16186      1
 16187 16184 16187      1
 16188 16184 16188      1
 16189 16184 16189      1
 16190 16189 16190      1
 16191 16189 16191      1
 16192 16189 16192      1
 16193 16190 16193      1
 16194 16190 16194      1
 16195 16190 16195      1
 16196 16195 16196      1
 16197 16195 16197      1
 16198 16195 16198      1
 16199 16196 16199      1
 16200 16196 16200      1
 16201 16196 16201      1
 16202 16201 16202      1
 16203 16201 16203      1
 16204 16201 16204      1
 16205 16202 16205      1
 16206 16202 16206      1
 16207 16202 16207      1
 16208 16207 16208      1
 16209 16207 16209      1
 16210 16207 16210      1
 16211 16208 16211      1
 16212 16208 16212      1
 16213 16208 16213      1
 16214 16213 16214      1
 16215 16213 16215      1
 16216 16213 16216      1
 16217 16214 16217      1
 16218 16214 16218      1
 16219 16214 16219      1
 16220 16219 16220      1
 16221 16219 16221      1
 16222 16219 16222      1
 16223 16220 16223      1
 16224 16220 16224      1
 16225 16220 16225      1
 16226 16225 16226      1
 16227 16225 16227      1
 16228 16225 16228      1
 16229 16226 16229      1
 16230 16226 16230      1
 16231 16226 16231      1
 16232 16231 16232      1
 16233 16231 16233      1
 16234 16231 16234      1
 16235 16232 16235      1
 16236 16232 16236      1
 16237 16232 16237      1
 16238 16237 16238      1
 16239 16237 16239      1
 16240 16237 16240      1
 16241 16238 16241      1
 16242 16238 16242      1
 16243 16238 16243      1
 16244 16243 16244      1
 16245 16243 16245      1
 16246 16243 16246      1
 16247 16244 16247      1
 16248 16244 16248      1
 16249 16244 16249      1
 16250 16249 16250      1
 16251 16249 16251      1
 16252 16249 16252      1
 16253 16250 16253      1
 16254 16250 16254      1
 16255 16250 16255      1
 16256 16255 16256      1
 16257 16255 16257      1
 16258 16255 16258      1
 16259 16256 16259      1
 16260 16256 16260      1
 16261 16256 16261      1
 16262 16261 16262      1
 16263 16261 16263      1
 16264 16261 16264      1
 16265 16262 16265      1
 16266 16262 16266      1
 16267 16262 16267      1
 16268 16267 16268      1
 16269 16267 16269      1
 16270 16267 16270      1
 16271 16268 16271      1
 16272 16268 16272      1
 16273 16268 16273      1
 16274 16273 16274      1
 16275 16273 16275      1
 16276 16273 16276      1
 16277 16274 16277      1
 16278 16274 16278      1
 16279 16274 16279      1
 16280 16279 16280      1
 16281 16279 16281      1
 16282 16279 16282      1
 16283 16280 16283      1
 16284 16280 16284      1
 16285 16280 16285      1
 16286 16285 16286      1
 16287 16285 16287      1
 16288 16285 16288      1
 16289 16286 16289      1
 16290 16286 16290      1
 16291 16286 16291      1
 16292 16291 16292      1
 16293 16291 16293      1
 16294 16291 16294      1
 16295 16292 16295      1
 16296 16292 16296      1
 16297 16292 16297      1
 16298 16297 16298      1
 16299 16297 16299      1
 16300 16297 16300      1
 16301 16298 16301      1
 16302 16298 16302      1
 16303 16298 16303      1
 16304 16303 16304      1
 16305 16303 16305      1
 16306 16303 16306      1
 16307 16304 16307      1
 16308 16304 16308      1
 16309 16304 16309      1
 16310 16309 16310      1
 16311 16309 16311      1
 16312 16309 16312      1
 16313 16310 16313      1
 16314 16310 16314      1
 16315 16310 16315      1
 16316 16315 16316      1
 16317 16315 16317      1
 16318 16315 16318      1
 16319 16316 16319      1
 16320 16316 16320      1
 16321 16316 16321      1
 16322 16321 16322      1
 16323 16321 16323      1
 16324 16321 16324      1
 16325 16322 16325      1
 16326 16322 16326      1
 16327 16322 16327      1
 16328 16327 16328      1
 16329 16327 16329      1
 16330 16327 16330      1
 16331 16328 16331      1
 16332 16328 16332      1
 16333 16328 16333      1
 16334 16333 16334      1
 16335 16333 16335      1
 16336 16333 16336      1
 16337 16334 16337      1
 16338 16334 16338      1
 16339 16334 16339      1
 16340 16339 16340      1
 16341 16339 16341      1
 16342 16339 16342      1
 16343 16340 16343      1
 16344 16340 16344      1
 16345 16340 16345      1
 16346 16345 16346      1
 16347 16345 16347      1
 16348 16345 16348      1
 16349 16346 16349      1
 16350 16346 16350      1
 16351 16346 16351      1
 16352 16351 16352      1
 16353 16351 16353      1
 16354 16351 16354      1
 16355 16352 16355      1
 16356 16352 16356      1
 16357 16352 16357      1
 16358 16357 16358      1
 16359 16357 16359      1
 16360 16357 16360      1
 16361 16358 16361      1
 16362 16358 16362      1
 16363 16358 16363      1
 16364 16363 16364      1
 16365 16363 16365      1
 16366 16363 16366      1
 16367 16364 16367      1
 16368 16364 16368      1
 16369 16364 16369      1
 16370 16369 16370      1
 16371 16369 16371      1
 16372 16369 16372      1
 16373 16370 16373      1
 16374 16370 16374      1
 16375 16370 16375      1
 16376 16375 16376      1
 16377 16375 16377      1
 16378 16375 16378      1
 16379 16376 16379      1
 16380 16376 16380      1
 16381 16376 16381      1
 16382 16381 16382      1
 16383 16381 16383      1
 16384 16381 16384      1
 16385 16382 16385      1
 16386 16382 16386      1
 16387 16382 16387      1
 16388 16387 16388      1
 16389 16387 16389      1
 16390 16387 16390      1
 16391 16388 16391      1
 16392 16388 16392      1
 16393 16388 16393      1
 16394 16393 16394      1
 16395 16393 16395      1
 16396 16393 16396      1
 16397 16394 16397      1
 16398 16394 16398      1
 16399 16394 16399      1
 16400 16399 16400      1
 16401 16399 16401      1
 16402 16399 16402      1
 16403 16400 16403      1
 16404 16400 16404      1
 16405 16400 16405      1
 16406 16405 16406      1
 16407 16405 16407      1
 16408 16405 16408      1
 16409 16406 16409      1
 16410 16406 16410      1
 16411 16406 16411      1
 16412 16411 16412      1
 16413 16411 16413      1
 16414 16411 16414      1
 16415 16412 16415      1
 16416 16412 16416      1
 16417 16412 16417      1
 16418 16417 16418      1
 16419 16417 16419      1
 16420 16417 16420      1
 16421 16418 16421      1
 16422 16418 16422      1
 16423 16418 16423      1
 16424 16423 16424      1
 16425 16423 16425      1
 16426 16423 16426      1
 16427 16424 16427      1
 16428 16424 16428      1
 16429 16424 16429      1
 16430 16429 16430      1
 16431 16429 16431      1
 16432 16429 16432      1
 16433 16430 16433      1
 16434 16430 16434      1
 16435 16430 16435      1
 16436 16435 16436      1
 16437 16435 16437      1
 16438 16435 16438      1
 16439 16436 16439      1
 16440 16436 16440      1
 16441 16436 16441      1
 16442 16441 16442      1
 16443 16441 16443      1
 16444 16441 16444      1
 16445 16442 16445      1
 16446 16442 16446      1
 16447 16442 16447      1
 16448 16447 16448      1
 16449 16447 16449      1
 16450 16447 16450      1
 16451 16448 16451      1
 16452 16448 16452      1
 16453 16448 16453      1
 16454 16453 16454      1
 16455 16453 16455      1
 16456 16453 16456      1
 16457 16454 16457      1
 16458 16454 16458      1
 16459 16454 16459      1
 16460 16459 16460      1
 16461 16459 16461      1
 16462 16459 16462      1
 16463 16460 16463      1
 16464 16460 16464      1
 16465 16460 16465      1
 16466 16465 16466      1
 16467 16465 16467      1
 16468 16465 16468      1
 16469 16466 16469      1
 16470 16466 16470      1
 16471 16466 16471      1
 16472 16471 16472      1
 16473 16471 16473      1
 16474 16471 16474      1
 16475 16472 16475      1
 16476 16472 16476      1
 16477 16472 16477      1
 16478 16477 16478      1
 16479 16477 16479      1
 16480 16477 16480      1
 16481 16478 16481      1
 16482 16478 16482      1
 16483 16478 16483      1
 16484 16483 16484      1
 16485 16483 16485      1
 16486 16483 16486      1
 16487 16484 16487      1
 16488 16484 16488      1
 16489 16484 16489      1
 16490 16489 16490      1
 16491 16489 16491      1
 16492 16489 16492      1
 16493 16490 16493      1
 16494 16490 16494      1
 16495 16490 16495      1
 16496 16495 16496      1
 16497 16495 16497      1
 16498 16495 16498      1
 16499 16496 16499      1
 16500 16496 16500      1
 16501 16496 16501      1
 16502 16501 16502      1
 16503 16501 16503      1
 16504 16501 16504      1
 16505 16502 16505      1
 16506 16502 16506      1
 16507 16502 16507      1
 16508 16507 16508      1
 16509 16507 16509      1
 16510 16507 16510      1
 16511 16508 16511      1
 16512 16508 16512      1
 16513 16508 16513      1
 16514 16513 16514      1
 16515 16513 16515      1
 16516 16513 16516      1
 16517 16514 16517      1
 16518 16514 16518      1
 16519 16514 16519      1
 16520 16519 16520      1
 16521 16519 16521      1
 16522 16519 16522      1
 16523 16520 16523      1
 16524 16520 16524      1
 16525 16520 16525      1
 16526 16525 16526      1
 16527 16525 16527      1
 16528 16525 16528      1
 16529 16526 16529      1
 16530 16526 16530      1
 16531 16526 16531      1
 16532 16531 16532      1
 16533 16531 16533      1
 16534 16531 16534      1
 16535 16532 16535      1
 16536 16532 16536      1
 16537 16532 16537      1
 16538 16537 16538      1
 16539 16537 16539      1
 16540 16537 16540      1
 16541 16538 16541      1
 16542 16538 16542      1
 16543 16538 16543      1
 16544 16543 16544      1
 16545 16543 16545      1
 16546 16543 16546      1
 16547 16544 16547      1
 16548 16544 16548      1
 16549 16544 16549      1
 16550 16549 16550      1
 16551 16549 16551      1
 16552 16549 16552      1
 16553 16550 16553      1
 16554 16550 16554      1
 16555 16550 16555      1
 16556 16555 16556      1
 16557 16555 16557      1
 16558 16555 16558      1
 16559 16556 16559      1
 16560 16556 16560      1
 16561 16556 16561      1
 16562 16561 16562      1
 16563 16561 16563      1
 16564 16561 16564      1
 16565 16562 16565      1
 16566 16562 16566      1
 16567 16562 16567      1
 16568 16567 16568      1
 16569 16567 16569      1
 16570 16567 16570      1
 16571 16568 16571      1
 16572 16568 16572      1
 16573 16568 16573      1
 16574 16573 16574      1
 16575 16573 16575      1
 16576 16573 16576      1
 16577 16574 16577      1
 16578 16574 16578      1
 16579 16574 16579      1
 16580 16579 16580      1
 16581 16579 16581      1
 16582 16579 16582      1
 16583 16580 16583      1
 16584 16580 16584      1
 16585 16580 16585      1
 16586 16585 16586      1
 16587 16585 16587      1
 16588 16585 16588      1
 16589 16586 16589      1
 16590 16586 16590      1
 16591 16586 16591      1
 16592 16591 16592      1
 16593 16591 16593      1
 16594 16591 16594      1
 16595 16592 16595      1
 16596 16592 16596      1
 16597 16592 16597      1
 16598 16597 16598      1
 16599 16597 16599      1
 16600 16597 16600      1
 16601 16598 16601      1
 16602 16598 16602      1
 16603 16598 16603      1
 16604 16603 16604      1
 16605 16603 16605      1
 16606 16603 16606      1
 16607 16604 16607      1
 16608 16604 16608      1
 16609 16604 16609      1
 16610 16609 16610      1
 16611 16609 16611      1
 16612 16609 16612      1
 16613 16610 16613      1
 16614 16610 16614      1
 16615 16610 16615      1
 16616 16615 16616      1
 16617 16615 16617      1
 16618 16615 16618      1
 16619 16616 16619      1
 16620 16616 16620      1
 16621 16616 16621      1
 16622 16621 16622      1
 16623 16621 16623      1
 16624 16621 16624      1
 16625 16622 16625      1
 16626 16622 16626      1
 16627 16622 16627      1
 16628 16627 16628      1
 16629 16627 16629      1
 16630 16627 16630      1
 16631 16628 16631      1
 16632 16628 16632      1
 16633 16628 16633      1
 16634 16633 16634      1
 16635 16633 16635      1
 16636 16633 16636      1
 16637 16634 16637      1
 16638 16634 16638      1
 16639 16634 16639      1
 16640 16639 16640      1
 16641 16639 16641      1
 16642 16639 16642      1
 16643 16640 16643      1
 16644 16640 16644      1
 16645 16640 16645      1
 16646 16645 16646      1
 16647 16645 16647      1
 16648 16645 16648      1
 16649 16646 16649      1
 16650 16646 16650      1
 16651 16646 16651      1
 16652 16651 16652      1
 16653 16651 16653      1
 16654 16651 16654      1
 16655 16652 16655      1
 16656 16652 16656      1
 16657 16652 16657      1
 16658 16657 16658      1
 16659 16657 16659      1
 16660 16657 16660      1
 16661 16658 16661      1
 16662 16658 16662      1
 16663 16658 16663      1
 16664 16663 16664      1
 16665 16663 16665      1
 16666 16663 16666      1
 16667 16664 16667      1
 16668 16664 16668      1
 16669 16664 16669      1
 16670 16669 16670      1
 16671 16669 16671      1
 16672 16669 16672      1
 16673 16670 16673      1
 16674 16670 16674      1
 16675 16670 16675      1
 16676 16675 16676      1
 16677 16675 16677      1
 16678 16675 16678      1
 16679 16676 16679      1
 16680 16676 16680      1
 16681 16676 16681      1
 16682 16681 16682      1
 16683 16681 16683      1
 16684 16681 16684      1
 16685 16682 16685      1
 16686 16682 16686      1
 16687 16682 16687      1
 16688 16687 16688      1
 16689 16687 16689      1
 16690 16687 16690      1
 16691 16688 16691      1
 16692 16688 16692      1
 16693 16688 16693      1
 16694 16693 16694      1
 16695 16693 16695      1
 16696 16693 16696      1
 16697 16694 16697      1
 16698 16694 16698      1
 16699 16694 16699      1
 16700 16699 16700      1
 16701 16699 16701      1
 16702 16699 16702      1
 16703 16700 16703      1
 16704 16700 16704      1
 16705 16700 16705      1
 16706 16705 16706      1
 16707 16705 16707      1
 16708 16705 16708      1
 16709 16706 16709      1
 16710 16706 16710      1
 16711 16706 16711      1
 16712 16711 16712      1
 16713 16711 16713      1
 16714 16711 16714      1
 16715 16712 16715      1
 16716 16712 16716      1
 16717 16712 16717      1
 16718 16717 16718      1
 16719 16717 16719      1
 16720 16717 16720      1
 16721 16718 16721      1
 16722 16718 16722      1
 16723 16718 16723      1
 16724 16723 16724      1
 16725 16723 16725      1
 16726 16723 16726      1
 16727 16724 16727      1
 16728 16724 16728      1
 16729 16724 16729      1
 16730 16729 16730      1
 16731 16729 16731      1
 16732 16729 16732      1
 16733 16730 16733      1
 16734 16730 16734      1
 16735 16730 16735      1
 16736 16735 16736      1
 16737 16735 16737      1
 16738 16735 16738      1
 16739 16736 16739      1
 16740 16736 16740      1
 16741 16736 16741      1
 16742 16741 16742      1
 16743 16741 16743      1
 16744 16741 16744      1
 16745 16742 16745      1
 16746 16742 16746      1
 16747 16742 16747      1
 16748 16747 16748      1
 16749 16747 16749      1
 16750 16747 16750      1
 16751 16748 16751      1
 16752 16748 16752      1
 16753 16748 16753      1
 16754 16753 16754      1
 16755 16753 16755      1
 16756 16753 16756      1
 16757 16754 16757      1
 16758 16754 16758      1
 16759 16754 16759      1
 16760 16759 16760      1
 16761 16759 16761      1
 16762 16759 16762      1
 16763 16760 16763      1
 16764 16760 16764      1
 16765 16760 16765      1
 16766 16765 16766      1
 16767 16765 16767      1
 16768 16765 16768      1
 16769 16766 16769      1
 16770 16766 16770      1
 16771 16766 16771      1
 16772 16771 16772      1
 16773 16771 16773      1
 16774 16771 16774      1
 16775 16772 16775      1
 16776 16772 16776      1
 16777 16772 16777      1
 16778 16777 16778      1
 16779 16777 16779      1
 16780 16777 16780      1
 16781 16778 16781      1
 16782 16778 16782      1
 16783 16778 16783      1
 16784 16783 16784      1
 16785 16783 16785      1
 16786 16783 16786      1
 16787 16784 16787      1
 16788 16784 16788      1
 16789 16784 16789      1
 16790 16789 16790      1
 16791 16789 16791      1
 16792 16789 16792      1
 16793 16790 16793      1
 16794 16790 16794      1
 16795 16790 16795      1
 16796 16795 16796      1
 16797 16795 16797      1
 16798 16795 16798      1
 16799 16796 16799      1
 16800 16796 16800      1
 16801 16796 16801      1
 16802 16801 16802      1
 16803 16801 16803      1
 16804 16801 16804      1
 16805 16802 16805      1
 16806 16802 16806      1
 16807 16802 16807      1
 16808 16807 16808      1
 16809 16807 16809      1
 16810 16807 16810      1
 16811 16808 16811      1
 16812 16808 16812      1
 16813 16808 16813      1
 16814 16813 16814      1
 16815 16813 16815      1
 16816 16813 16816      1
 16817 16814 16817      1
 16818 16814 16818      1
 16819 16814 16819      1
 16820 16819 16820      1
 16821 16819 16821      1
 16822 16819 16822      1
 16823 16820 16823      1
 16824 16820 16824      1
 16825 16820 16825      1
 16826 16825 16826      1
 16827 16825 16827      1
 16828 16825 16828      1
 16829 16826 16829      1
 16830 16826 16830      1
 16831 16826 16831      1
 16832 16831 16832      1
 16833 16831 16833      1
 16834 16831 16834      1
 16835 16832 16835      1
 16836 16832 16836      1
 16837 16832 16837      1
 16838 16837 16838      1
 16839 16837 16839      1
 16840 16837 16840      1
 16841 16838 16841      1
 16842 16838 16842      1
 16843 16838 16843      1
 16844 16843 16844      1
 16845 16843 16845      1
 16846 16843 16846      1
 16847 16844 16847      1
 16848 16844 16848      1
 16849 16844 16849      1
 16850 16849 16850      1
 16851 16849 16851      1
 16852 16849 16852      1
 16853 16850 16853      1
 16854 16850 16854      1
 16855 16850 16855      1
 16856 16855 16856      1
 16857 16855 16857      1
 16858 16855 16858      1
 16859 16856 16859      1
 16860 16856 16860      1
 16861 16856 16861      1
 16862 16861 16862      1
 16863 16861 16863      1
 16864 16861 16864      1
 16865 16862 16865      1
 16866 16862 16866      1
 16867 16862 16867      1
 16868 16867 16868      1
 16869 16867 16869      1
 16870 16867 16870      1
 16871 16868 16871      1
 16872 16868 16872      1
 16873 16868 16873      1
 16874 16873 16874      1
 16875 16873 16875      1
 16876 16873 16876      1
 16877 16874 16877      1
 16878 16874 16878      1
 16879 16874 16879      1
 16880 16879 16880      1
 16881 16879 16881      1
 16882 16879 16882      1
 16883 16880 16883      1
 16884 16880 16884      1
 16885 16880 16885      1
 16886 16885 16886      1
 16887 16885 16887      1
 16888 16885 16888      1
 16889 16886 16889      1
 16890 16886 16890      1
 16891 16886 16891      1
 16892 16891 16892      1
 16893 16891 16893      1
 16894 16891 16894      1
 16895 16892 16895      1
 16896 16892 16896      1
 16897 16892 16897      1
 16898 16897 16898      1
 16899 16897 16899      1
 16900 16897 16900      1
 16901 16898 16901      1
 16902 16898 16902      1
 16903 16898 16903      1
 16904 16903 16904      1
 16905 16903 16905      1
 16906 16903 16906      1
 16907 16904 16907      1
 16908 16904 16908      1
 16909 16904 16909      1
 16910 16909 16910      1
 16911 16909 16911      1
 16912 16909 16912      1
 16913 16910 16913      1
 16914 16910 16914      1
 16915 16910 16915      1
 16916 16915 16916      1
 16917 16915 16917      1
 16918 16915 16918      1
 16919 16916 16919      1
 16920 16916 16920      1
 16921 16916 16921      1
 16922 16921 16922      1
 16923 16921 16923      1
 16924 16921 16924      1
 16925 16922 16925      1
 16926 16922 16926      1
 16927 16922 16927      1
 16928 16927 16928      1
 16929 16927 16929      1
 16930 16927 16930      1
 16931 16928 16931      1
 16932 16928 16932      1
 16933 16928 16933      1
 16934 16933 16934      1
 16935 16933 16935      1
 16936 16933 16936      1
 16937 16934 16937      1
 16938 16934 16938      1
 16939 16934 16939      1
 16940 16939 16940      1
 16941 16939 16941      1
 16942 16939 16942      1
 16943 16940 16943      1
 16944 16940 16944      1
 16945 16940 16945      1
 16946 16945 16946      1
 16947 16945 16947      1
 16948 16945 16948      1
 16949 16946 16949      1
 16950 16946 16950      1
 16951 16946 16951      1
 16952 16951 16952      1
 16953 16951 16953      1
 16954 16951 16954      1
 16955 16952 16955      1
 16956 16952 16956      1
 16957 16952 16957      1
 16958 16957 16958      1
 16959 16957 16959      1
 16960 16957 16960      1
 16961 16958 16961      1
 16962 16958 16962      1
 16963 16958 16963      1
 16964 16963 16964      1
 16965 16963 16965      1
 16966 16963 16966      1
 16967 16964 16967      1
 16968 16964 16968      1
 16969 16964 16969      1
 16970 16969 16970      1
 16971 16969 16971      1
 16972 16969 16972      1
 16973 16970 16973      1
 16974 16970 16974      1
 16975 16970 16975      1
 16976 16975 16976      1
 16977 16975 16977      1
 16978 16975 16978      1
 16979 16976 16979      1
 16980 16976 16980      1
 16981 16976 16981      1
 16982 16981 16982      1
 16983 16981 16983      1
 16984 16981 16984      1
 16985 16982 16985      1
 16986 16982 16986      1
 16987 16982 16987      1
 16988 16987 16988      1
 16989 16987 16989      1
 16990 16987 16990      1
 16991 16988 16991      1
 16992 16988 16992      1
 16993 16988 16993      1
 16994 16993 16994      1
 16995 16993 16995      1
 16996 16993 16996      1
 16997 16994 16997      1
 16998 16994 16998      1
 16999 16994 16999      1
 17000 16999 17000      1
 17001 16999 17001      1
 17002 16999 17002      1
 17003 17000 17003      1
 17004 17000 17004      1
 17005 17000 17005      1
 17006 17005 17006      1
 17007 17005 17007      1
 17008 17005 17008      1
 17009 17006 17009      1
 17010 17006 17010      1
 17011 17006 17011      1
 17012 17011 17012      1
 17013 17011 17013      1
 17014 17011 17014      1
 17015 17012 17015      1
 17016 17012 17016      1
 17017 17012 17017      1
 17018 17017 17018      1
 17019 17017 17019      1
 17020 17017 17020      1
 17021 17018 17021      1
 17022 17018 17022      1
 17023 17018 17023      1
 17024 17023 17024      1
 17025 17023 17025      1
 17026 17023 17026      1
 17027 17024 17027      1
 17028 17024 17028      1
 17029 17024 17029      1
 17030 17029 17030      1
 17031 17029 17031      1
 17032 17029 17032      1
 17033 17030 17033      1
 17034 17030 17034      1
 17035 17030 17035      1
 17036 17035 17036      1
 17037 17035 17037      1
 17038 17035 17038      1
 17039 17036 17039      1
 17040 17036 17040      1
 17041 17036 17041      1
 17042 17041 17042      1
 17043 17041 17043      1
 17044 17041 17044      1
 17045 17042 17045      1
 17046 17042 17046      1
 17047 17042 17047      1
 17048 17047 17048      1
 17049 17047 17049      1
 17050 17047 17050      1
 17051 17048 17051      1
 17052 17048 17052      1
 17053 17048 17053      1
 17054 17053 17054      1
 17055 17053 17055      1
 17056 17053 17056      1
 17057 17054 17057      1
 17058 17054 17058      1
 17059 17054 17059      1
 17060 17059 17060      1
 17061 17059 17061      1
 17062 17059 17062      1
 17063 17060 17063      1
 17064 17060 17064      1
 17065 17060 17065      1
 17066 17065 17066      1
 17067 17065 17067      1
 17068 17065 17068      1
 17069 17066 17069      1
 17070 17066 17070      1
 17071 17066 17071      1
 17072 17071 17072      1
 17073 17071 17073      1
 17074 17071 17074      1
 17075 17072 17075      1
 17076 17072 17076      1
 17077 17072 17077      1
 17078 17077 17078      1
 17079 17077 17079      1
 17080 17077 17080      1
 17081 17078 17081      1
 17082 17078 17082      1
 17083 17078 17083      1
 17084 17083 17084      1
 17085 17083 17085      1
 17086 17083 17086      1
 17087 17084 17087      1
 17088 17084 17088      1
 17089 17084 17089      1
 17090 17089 17090      1
 17091 17089 17091      1
 17092 17089 17092      1
 17093 17090 17093      1
 17094 17090 17094      1
 17095 17090 17095      1
 17096 17095 17096      1
 17097 17095 17097      1
 17098 17095 17098      1
 17099 17096 17099      1
 17100 17096 17100      1
 17101 17096 17101      1
 17102 17101 17102      1
 17103 17101 17103      1
 17104 17101 17104      1
 17105 17102 17105      1
 17106 17102 17106      1
 17107 17102 17107      1
 17108 17107 17108      1
 17109 17107 17109      1
 17110 17107 17110      1
 17111 17108 17111      1
 17112 17108 17112      1
 17113 17108 17113      1
 17114 17113 17114      1
 17115 17113 17115      1
 17116 17113 17116      1
 17117 17114 17117      1
 17118 17114 17118      1
 17119 17114 17119      1
 17120 17119 17120      1
 17121 17119 17121      1
 17122 17119 17122      1
 17123 17120 17123      1
 17124 17120 17124      1
 17125 17120 17125      1
 17126 17125 17126      1
 17127 17125 17127      1
 17128 17125 17128      1
 17129 17126 17129      1
 17130 17126 17130      1
 17131 17126 17131      1
 17132 17131 17132      1
 17133 17131 17133      1
 17134 17131 17134      1
 17135 17132 17135      1
 17136 17132 17136      1
 17137 17132 17137      1
 17138 17137 17138      1
 17139 17137 17139      1
 17140 17137 17140      1
 17141 17138 17141      1
 17142 17138 17142      1
 17143 17138 17143      1
 17144 17143 17144      1
 17145 17143 17145      1
 17146 17143 17146      1
 17147 17144 17147      1
 17148 17144 17148      1
 17149 17144 17149      1
 17150 17149 17150      1
 17151 17149 17151      1
 17152 17149 17152      1
 17153 17150 17153      1
 17154 17150 17154      1
 17155 17150 17155      1
 17156 17155 17156      1
 17157 17155 17157      1
 17158 17155 17158      1
 17159 17156 17159      1
 17160 17156 17160      1
 17161 17156 17161      1
 17162 17161 17162      1
 17163 17161 17163      1
 17164 17161 17164      1
 17165 17162 17165      1
 17166 17162 17166      1
 17167 17162 17167      1
 17168 17167 17168      1
 17169 17167 17169      1
 17170 17167 17170      1
 17171 17168 17171      1
 17172 17168 17172      1
 17173 17168 17173      1
 17174 17173 17174      1
 17175 17173 17175      1
 17176 17173 17176      1
 17177 17174 17177      1
 17178 17174 17178      1
 17179 17174 17179      1
 17180 17179 17180      1
 17181 17179 17181      1
 17182 17179 17182      1
 17183 17180 17183      1
 17184 17180 17184      1
 17185 17180 17185      1
 17186 17185 17186      1
 17187 17185 17187      1
 17188 17185 17188      1
 17189 17186 17189      1
 17190 17186 17190      1
 17191 17186 17191      1
 17192 17191 17192      1
 17193 17191 17193      1
 17194 17191 17194      1
 17195 17192 17195      1
 17196 17192 17196      1
 17197 17192 17197      1
 17198 17197 17198      1
 17199 17197 17199      1
 17200 17197 17200      1
 17201 17198 17201      1
 17202 17198 17202      1
 17203 17198 17203      1
 17204 17203 17204      1
 17205 17203 17205      1
 17206 17203 17206      1
 17207 17204 17207      1
 17208 17204 17208      1
 17209 17204 17209      1
 17210 17209 17210      1
 17211 17209 17211      1
 17212 17209 17212      1
 17213 17210 17213      1
 17214 17210 17214      1
 17215 17210 17215      1
 17216 17215 17216      1
 17217 17215 17217      1
 17218 17215 17218      1
 17219 17216 17219      1
 17220 17216 17220      1
 17221 17216 17221      1
 17222 17221 17222      1
 17223 17221 17223      1
 17224 17221 17224      1
 17225 17222 17225      1
 17226 17222 17226      1
 17227 17222 17227      1
 17228 17227 17228      1
 17229 17227 17229      1
 17230 17227 17230      1
 17231 17228 17231      1
 17232 17228 17232      1
 17233 17228 17233      1
 17234 17233 17234      1
 17235 17233 17235      1
 17236 17233 17236      1
 17237 17234 17237      1
 17238 17234 17238      1
 17239 17234 17239      1
 17240 17239 17240      1
 17241 17239 17241      1
 17242 17239 17242      1
 17243 17240 17243      1
 17244 17240 17244      1
 17245 17240 17245      1
 17246 17245 17246      1
 17247 17245 17247      1
 17248 17245 17248      1
 17249 17246 17249      1
 17250 17246 17250      1
 17251 17246 17251      1
 17252 17251 17252      1
 17253 17251 17253      1
 17254 17251 17254      1
 17255 17252 17255      1
 17256 17252 17256      1
 17257 17252 17257      1
 17258 17257 17258      1
 17259 17257 17259      1
 17260 17257 17260      1
 17261 17258 17261      1
 17262 17258 17262      1
 17263 17258 17263      1
 17264 17263 17264      1
 17265 17263 17265      1
 17266 17263 17266      1
 17267 17264 17267      1
 17268 17264 17268      1
 17269 17264 17269      1
 17270 17269 17270      1
 17271 17269 17271      1
 17272 17269 17272      1
 17273 17270 17273      1
 17274 17270 17274      1
 17275 17270 17275      1
 17276 17275 17276      1
 17277 17275 17277      1
 17278 17275 17278      1
 17279 17276 17279      1
 17280 17276 17280      1
 17281 17276 17281      1
 17282 17281 17282      1
 17283 17281 17283      1
 17284 17281 17284      1
 17285 17282 17285      1
 17286 17282 17286      1
 17287 17282 17287      1
 17288 17287 17288      1
 17289 17287 17289      1
 17290 17287 17290      1
 17291 17288 17291      1
 17292 17288 17292      1
 17293 17288 17293      1
 17294 17293 17294      1
 17295 17293 17295      1
 17296 17293 17296      1
 17297 17294 17297      1
 17298 17294 17298      1
 17299 17294 17299      1
 17300 17299 17300      1
 17301 17299 17301      1
 17302 17299 17302      1
 17303 17300 17303      1
 17304 17300 17304      1
 17305 17300 17305      1
 17306 17305 17306      1
 17307 17305 17307      1
 17308 17305 17308      1
 17309 17306 17309      1
 17310 17306 17310      1
 17311 17306 17311      1
 17312 17311 17312      1
 17313 17311 17313      1
 17314 17311 17314      1
 17315 17312 17315      1
 17316 17312 17316      1
 17317 17312 17317      1
 17318 17317 17318      1
 17319 17317 17319      1
 17320 17317 17320      1
 17321 17318 17321      1
 17322 17318 17322      1
 17323 17318 17323      1
 17324 17323 17324      1
 17325 17323 17325      1
 17326 17323 17326      1
 17327 17324 17327      1
 17328 17324 17328      1
 17329 17324 17329      1
 17330 17329 17330      1
 17331 17329 17331      1
 17332 17329 17332      1
 17333 17330 17333      1
 17334 17330 17334      1
 17335 17330 17335      1
 17336 17335 17336      1
 17337 17335 17337      1
 17338 17335 17338      1
 17339 17336 17339      1
 17340 17336 17340      1
 17341 17336 17341      1
 17342 17341 17342      1
 17343 17341 17343      1
 17344 17341 17344      1
 17345 17342 17345      1
 17346 17342 17346      1
 17347 17342 17347      1
 17348 17347 17348      1
 17349 17347 17349      1
 17350 17347 17350      1
 17351 17348 17351      1
 17352 17348 17352      1
 17353 17348 17353      1
 17354 17353 17354      1
 17355 17353 17355      1
 17356 17353 17356      1
 17357 17354 17357      1
 17358 17354 17358      1
 17359 17354 17359      1
 17360 17359 17360      1
 17361 17359 17361      1
 17362 17359 17362      1
 17363 17360 17363      1
 17364 17360 17364      1
 17365 17360 17365      1
 17366 17365 17366      1
 17367 17365 17367      1
 17368 17365 17368      1
 17369 17366 17369      1
 17370 17366 17370      1
 17371 17366 17371      1
 17372 17371 17372      1
 17373 17371 17373      1
 17374 17371 17374      1
 17375 17372 17375      1
 17376 17372 17376      1
 17377 17372 17377      1
 17378 17377 17378      1
 17379 17377 17379      1
 17380 17377 17380      1
 17381 17378 17381      1
 17382 17378 17382      1
 17383 17378 17383      1
 17384 17383 17384      1
 17385 17383 17385      1
 17386 17383 17386      1
 17387 17384 17387      1
 17388 17384 17388      1
 17389 17384 17389      1
 17390 17389 17390      1
 17391 17389 17391      1
 17392 17389 17392      1
 17393 17390 17393      1
 17394 17390 17394      1
 17395 17390 17395      1
 17396 17395 17396      1
 17397 17395 17397      1
 17398 17395 17398      1
 17399 17396 17399      1
 17400 17396 17400      1
 17401 17396 17401      1
 17402 17401 17402      1
 17403 17401 17403      1
 17404 17401 17404      1
 17405 17402 17405      1
 17406 17402 17406      1
 17407 17402 17407      1
 17408 17407 17408      1
 17409 17407 17409      1
 17410 17407 17410      1
 17411 17408 17411      1
 17412 17408 17412      1
 17413 17408 17413      1
 17414 17413 17414      1
 17415 17413 17415      1
 17416 17413 17416      1
 17417 17414 17417      1
 17418 17414 17418      1
 17419 17414 17419      1
 17420 17419 17420      1
 17421 17419 17421      1
 17422 17419 17422      1
 17423 17420 17423      1
 17424 17420 17424      1
 17425 17420 17425      1
 17426 17425 17426      1
 17427 17425 17427      1
 17428 17425 17428      1
 17429 17426 17429      1
 17430 17426 17430      1
 17431 17426 17431      1
 17432 17431 17432      1
 17433 17431 17433      1
 17434 17431 17434      1
 17435 17432 17435      1
 17436 17432 17436      1
 17437 17432 17437      1
 17438 17437 17438      1
 17439 17437 17439      1
 17440 17437 17440      1
 17441 17438 17441      1
 17442 17438 17442      1
 17443 17438 17443      1
 17444 17443 17444      1
 17445 17443 17445      1
 17446 17443 17446      1
 17447 17444 17447      1
 17448 17444 17448      1
 17449 17444 17449      1
 17450 17449 17450      1
 17451 17449 17451      1
 17452 17449 17452      1
 17453 17450 17453      1
 17454 17450 17454      1
 17455 17450 17455      1
 17456 17455 17456      1
 17457 17455 17457      1
 17458 17455 17458      1
 17459 17456 17459      1
 17460 17456 17460      1
 17461 17456 17461      1
 17462 17461 17462      1
 17463 17461 17463      1
 17464 17461 17464      1
 17465 17462 17465      1
 17466 17462 17466      1
 17467 17462 17467      1
 17468 17467 17468      1
 17469 17467 17469      1
 17470 17467 17470      1
 17471 17468 17471      1
 17472 17468 17472      1
 17473 17468 17473      1
 17474 17473 17474      1
 17475 17473 17475      1
 17476 17473 17476      1
 17477 17474 17477      1
 17478 17474 17478      1
 17479 17474 17479      1
 17480 17479 17480      1
 17481 17479 17481      1
 17482 17479 17482      1
 17483 17480 17483      1
 17484 17480 17484      1
 17485 17480 17485      1
 17486 17485 17486      1
 17487 17485 17487      1
 17488 17485 17488      1
 17489 17486 17489      1
 17490 17486 17490      1
 17491 17486 17491      1
 17492 17491 17492      1
 17493 17491 17493      1
 17494 17491 17494      1
 17495 17492 17495      1
 17496 17492 17496      1
 17497 17492 17497      1
 17498 17497 17498      1
 17499 17497 17499      1
 17500 17497 17500      1
 17501 17498 17501      1
 17502 17498 17502      1
 17503 17498 17503      1
 17504 17503 17504      1
 17505 17503 17505      1
 17506 17503 17506      1
 17507 17504 17507      1
 17508 17504 17508      1
 17509 17504 17509      1
 17510 17509 17510      1
 17511 17509 17511      1
 17512 17509 17512      1
 17513 17510 17513      1
 17514 17510 17514      1
 17515 17510 17515      1
 17516 17515 17516      1
 17517 17515 17517      1
 17518 17515 17518      1
 17519 17516 17519      1
 17520 17516 17520      1
 17521 17516 17521      1
 17522 17521 17522      1
 17523 17521 17523      1
 17524 17521 17524      1
 17525 17522 17525      1
 17526 17522 17526      1
 17527 17522 17527      1
 17528 17527 17528      1
 17529 17527 17529      1
 17530 17527 17530      1
 17531 17528 17531      1
 17532 17528 17532      1
 17533 17528 17533      1
 17534 17533 17534      1
 17535 17533 17535      1
 17536 17533 17536      1
 17537 17534 17537      1
 17538 17534 17538      1
 17539 17534 17539      1
 17540 17539 17540      1
 17541 17539 17541      1
 17542 17539 17542      1
 17543 17540 17543      1
 17544 17540 17544      1
 17545 17540 17545      1
 17546 17545 17546      1
 17547 17545 17547      1
 17548 17545 17548      1
 17549 17546 17549      1
 17550 17546 17550      1
 17551 17546 17551      1
 17552 17551 17552      1
 17553 17551 17553      1
 17554 17551 17554      1
 17555 17552 17555      1
 17556 17552 17556      1
 17557 17552 17557      1
 17558 17557 17558      1
 17559 17557 17559      1
 17560 17557 17560      1
 17561 17558 17561      1
 17562 17558 17562      1
 17563 17558 17563      1
 17564 17563 17564      1
 17565 17563 17565      1
 17566 17563 17566      1
 17567 17564 17567      1
 17568 17564 17568      1
 17569 17564 17569      1
 17570 17569 17570      1
 17571 17569 17571      1
 17572 17569 17572      1
 17573 17570 17573      1
 17574 17570 17574      1
 17575 17570 17575      1
 17576 17575 17576      1
 17577 17575 17577      1
 17578 17575 17578      1
 17579 17576 17579      1
 17580 17576 17580      1
 17581 17576 17581      1
 17582 17581 17582      1
 17583 17581 17583      1
 17584 17581 17584      1
 17585 17582 17585      1
 17586 17582 17586      1
 17587 17582 17587      1
 17588 17587 17588      1
 17589 17587 17589      1
 17590 17587 17590      1
 17591 17588 17591      1
 17592 17588 17592      1
 17593 17588 17593      1
 17594 17593 17594      1
 17595 17593 17595      1
 17596 17593 17596      1
 17597 17594 17597      1
 17598 17594 17598      1
 17599 17594 17599      1
 17600 17599 17600      1
 17601 17599 17601      1
 17602 17599 17602      1
 17603 17600 17603      1
 17604 17600 17604      1
 17605 17600 17605      1
 17606 17605 17606      1
 17607 17605 17607      1
 17608 17605 17608      1
 17609 17606 17609      1
 17610 17606 17610      1
 17611 17606 17611      1
 17612 17611 17612      1
 17613 17611 17613      1
 17614 17611 17614      1
 17615 17612 17615      1
 17616 17612 17616      1
 17617 17612 17617      1
 17618 17617 17618      1
 17619 17617 17619      1
 17620 17617 17620      1
 17621 17618 17621      1
 17622 17618 17622      1
 17623 17618 17623      1
 17624 17623 17624      1
 17625 17623 17625      1
 17626 17623 17626      1
 17627 17624 17627      1
 17628 17624 17628      1
 17629 17624 17629      1
 17630 17629 17630      1
 17631 17629 17631      1
 17632 17629 17632      1
 17633 17630 17633      1
 17634 17630 17634      1
 17635 17630 17635      1
 17636 17635 17636      1
 17637 17635 17637      1
 17638 17635 17638      1
 17639 17636 17639      1
 17640 17636 17640      1
 17641 17636 17641      1
 17642 17641 17642      1
 17643 17641 17643      1
 17644 17641 17644      1
 17645 17642 17645      1
 17646 17642 17646      1
 17647 17642 17647      1
 17648 17647 17648      1
 17649 17647 17649      1
 17650 17647 17650      1
 17651 17648 17651      1
 17652 17648 17652      1
 17653 17648 17653      1
 17654 17653 17654      1
 17655 17653 17655      1
 17656 17653 17656      1
 17657 17654 17657      1
 17658 17654 17658      1
 17659 17654 17659      1
 17660 17659 17660      1
 17661 17659 17661      1
 17662 17659 17662      1
 17663 17660 17663      1
 17664 17660 17664      1
 17665 17660 17665      1
 17666 17665 17666      1
 17667 17665 17667      1
 17668 17665 17668      1
 17669 17666 17669      1
 17670 17666 17670      1
 17671 17666 17671      1
 17672 17671 17672      1
 17673 17671 17673      1
 17674 17671 17674      1
 17675 17672 17675      1
 17676 17672 17676      1
 17677 17672 17677      1
 17678 17677 17678      1
 17679 17677 17679      1
 17680 17677 17680      1
 17681 17678 17681      1
 17682 17678 17682      1
 17683 17678 17683      1
 17684 17683 17684      1
 17685 17683 17685      1
 17686 17683 17686      1
 17687 17684 17687      1
 17688 17684 17688      1
 17689 17684 17689      1
 17690 17689 17690      1
 17691 17689 17691      1
 17692 17689 17692      1
 17693 17690 17693      1
 17694 17690 17694      1
 17695 17690 17695      1
 17696 17695 17696      1
 17697 17695 17697      1
 17698 17695 17698      1
 17699 17696 17699      1
 17700 17696 17700      1
 17701 17696 17701      1
 17702 17701 17702      1
 17703 17701 17703      1
 17704 17701 17704      1
 17705 17702 17705      1
 17706 17702 17706      1
 17707 17702 17707      1
 17708 17707 17708      1
 17709 17707 17709      1
 17710 17707 17710      1
 17711 17708 17711      1
 17712 17708 17712      1
 17713 17708 17713      1
 17714 17713 17714      1
 17715 17713 17715      1
 17716 17713 17716      1
 17717 17714 17717      1
 17718 17714 17718      1
 17719 17714 17719      1
 17720 17719 17720      1
 17721 17719 17721      1
 17722 17719 17722      1
 17723 17720 17723      1
 17724 17720 17724      1
 17725 17720 17725      1
 17726 17725 17726      1
 17727 17725 17727      1
 17728 17725 17728      1
 17729 17726 17729      1
 17730 17726 17730      1
 17731 17726 17731      1
 17732 17731 17732      1
 17733 17731 17733      1
 17734 17731 17734      1
 17735 17732 17735      1
 17736 17732 17736      1
 17737 17732 17737      1
 17738 17737 17738      1
 17739 17737 17739      1
 17740 17737 17740      1
 17741 17738 17741      1
 17742 17738 17742      1
 17743 17738 17743      1
 17744 17743 17744      1
 17745 17743 17745      1
 17746 17743 17746      1
 17747 17744 17747      1
 17748 17744 17748      1
 17749 17744 17749      1
 17750 17749 17750      1
 17751 17749 17751      1
 17752 17749 17752      1
 17753 17750 17753      1
 17754 17750 17754      1
 17755 17750 17755      1
 17756 17755 17756      1
 17757 17755 17757      1
 17758 17755 17758      1
 17759 17756 17759      1
 17760 17756 17760      1
 17761 17756 17761      1
 17762 17761 17762      1
 17763 17761 17763      1
 17764 17761 17764      1
 17765 17762 17765      1
 17766 17762 17766      1
 17767 17762 17767      1
 17768 17767 17768      1
 17769 17767 17769      1
 17770 17767 17770      1
 17771 17768 17771      1
 17772 17768 17772      1
 17773 17768 17773      1
 17774 17773 17774      1
 17775 17773 17775      1
 17776 17773 17776      1
 17777 17774 17777      1
 17778 17774 17778      1
 17779 17774 17779      1
 17780 17779 17780      1
 17781 17779 17781      1
 17782 17779 17782      1
 17783 17780 17783      1
 17784 17780 17784      1
 17785 17780 17785      1
 17786 17785 17786      1
 17787 17785 17787      1
 17788 17785 17788      1
 17789 17786 17789      1
 17790 17786 17790      1
 17791 17786 17791      1
 17792 17791 17792      1
 17793 17791 17793      1
 17794 17791 17794      1
 17795 17792 17795      1
 17796 17792 17796      1
 17797 17792 17797      1
 17798 17797 17798      1
 17799 17797 17799      1
 17800 17797 17800      1
 17801 17798 17801      1
 17802 17798 17802      1
 17803 17798 17803      1
 17804 17803 17804      1
 17805 17803 17805      1
 17806 17803 17806      1
 17807 17804 17807      1
 17808 17804 17808      1
 17809 17804 17809      1
 17810 17809 17810      1
 17811 17809 17811      1
 17812 17809 17812      1
 17813 17810 17813      1
 17814 17810 17814      1
 17815 17810 17815      1
 17816 17815 17816      1
 17817 17815 17817      1
 17818 17815 17818      1
 17819 17816 17819      1
 17820 17816 17820      1
 17821 17816 17821      1
 17822 17821 17822      1
 17823 17821 17823      1
 17824 17821 17824      1
 17825 17822 17825      1
 17826 17822 17826      1
 17827 17822 17827      1
 17828 17827 17828      1
 17829 17827 17829      1
 17830 17827 17830      1
 17831 17828 17831      1
 17832 17828 17832      1
 17833 17828 17833      1
 17834 17833 17834      1
 17835 17833 17835      1
 17836 17833 17836      1
 17837 17834 17837      1
 17838 17834 17838      1
 17839 17834 17839      1
 17840 17839 17840      1
 17841 17839 17841      1
 17842 17839 17842      1
 17843 17840 17843      1
 17844 17840 17844      1
 17845 17840 17845      1
 17846 17845 17846      1
 17847 17845 17847      1
 17848 17845 17848      1
 17849 17846 17849      1
 17850 17846 17850      1
 17851 17846 17851      1
 17852 17851 17852      1
 17853 17851 17853      1
 17854 17851 17854      1
 17855 17852 17855      1
 17856 17852 17856      1
 17857 17852 17857      1
 17858 17857 17858      1
 17859 17857 17859      1
 17860 17857 17860      1
 17861 17858 17861      1
 17862 17858 17862      1
 17863 17858 17863      1
 17864 17863 17864      1
 17865 17863 17865      1
 17866 17863 17866      1
 17867 17864 17867      1
 17868 17864 17868      1
 17869 17864 17869      1
 17870 17869 17870      1
 17871 17869 17871      1
 17872 17869 17872      1
 17873 17870 17873      1
 17874 17870 17874      1
 17875 17870 17875      1
 17876 17875 17876      1
 17877 17875 17877      1
 17878 17875 17878      1
 17879 17876 17879      1
 17880 17876 17880      1
 17881 17876 17881      1
 17882 17881 17882      1
 17883 17881 17883      1
 17884 17881 17884      1
 17885 17882 17885      1
 17886 17882 17886      1
 17887 17882 17887      1
 17888 17887 17888      1
 17889 17887 17889      1
 17890 17887 17890      1
 17891 17888 17891      1
 17892 17888 17892      1
 17893 17888 17893      1
 17894 17893 17894      1
 17895 17893 17895      1
 17896 17893 17896      1
 17897 17894 17897      1
 17898 17894 17898      1
 17899 17894 17899      1
 17900 17899 17900      1
 17901 17899 17901      1
 17902 17899 17902      1
 17903 17900 17903      1
 17904 17900 17904      1
 17905 17900 17905      1
 17906 17905 17906      1
 17907 17905 17907      1
 17908 17905 17908      1
 17909 17906 17909      1
 17910 17906 17910      1
 17911 17906 17911      1
 17912 17911 17912      1
 17913 17911 17913      1
 17914 17911 17914      1
 17915 17912 17915      1
 17916 17912 17916      1
 17917 17912 17917      1
 17918 17917 17918      1
 17919 17917 17919      1
 17920 17917 17920      1
 17921 17918 17921      1
 17922 17918 17922      1
 17923 17918 17923      1
 17924 17923 17924      1
 17925 17923 17925      1
 17926 17923 17926      1
 17927 17924 17927      1
 17928 17924 17928      1
 17929 17924 17929      1
 17930 17929 17930      1
 17931 17929 17931      1
 17932 17929 17932      1
 17933 17930 17933      1
 17934 17930 17934      1
 17935 17930 17935      1
 17936 17935 17936      1
 17937 17935 17937      1
 17938 17935 17938      1
 17939 17936 17939      1
 17940 17936 17940      1
 17941 17936 17941      1
 17942 17941 17942      1
 17943 17941 17943      1
 17944 17941 17944      1
 17945 17942 17945      1
 17946 17942 17946      1
 17947 17942 17947      1
 17948 17947 17948      1
 17949 17947 17949      1
 17950 17947 17950      1
 17951 17948 17951      1
 17952 17948 17952      1
 17953 17948 17953      1
 17954 17953 17954      1
 17955 17953 17955      1
 17956 17953 17956      1
 17957 17954 17957      1
 17958 17954 17958      1
 17959 17954 17959      1
 17960 17959 17960      1
 17961 17959 17961      1
 17962 17959 17962      1
 17963 17960 17963      1
 17964 17960 17964      1
 17965 17960 17965      H
