@<TRIPOS>MOLECULE
generated by VMD
  126  132    1    0    0
SMALL
NO_CHARGES
****
Energy = 0

@<TRIPOS>ATOM
      1  C         -2.6875   -5.3915   10.0639  C.3    1  ****        0.000000
      2  C         -3.1907   -4.0022    9.6466  C.3    1  ****        0.000000
      3  C         -2.3255   -3.3622    8.5606  C.3    1  ****        0.000000
      4  C         -1.3144   -4.3502    8.0224  C.3    1  ****        0.000000
      5  C         -0.5179   -4.9518    9.1596  C.3    1  ****        0.000000
      6  O         -1.2988   -5.4138   10.2471  O.3    1  ****        0.000000
      7  C          1.4628   -4.3548   10.3548  C.3    1  ****        0.000000
      8  C          2.5239   -4.7534    9.3559  C.3    1  ****        0.000000
      9  C          3.9033   -4.8433    9.9953  C.3    1  ****        0.000000
     10  C          4.2077   -3.6070   10.8435  C.3    1  ****        0.000000
     11  C          3.0267   -3.2583   11.7539  C.3    1  ****        0.000000
     12  O          1.8163   -3.1806   11.0578  O.3    1  ****        0.000000
     13  C         -3.4496   -1.8551   10.7398  C.3    1  ****        0.000000
     14  O         -4.2980   -1.5287    9.6776  O.3    1  ****        0.000000
     15  C         -4.2053   -0.1657    9.3345  C.3    1  ****        0.000000
     16  C         -3.9792    0.7056   10.5827  C.3    1  ****        0.000000
     17  C         -4.6978    0.0533   11.7567  C.3    1  ****        0.000000
     18  C         -4.0367   -1.2959   12.0235  C.3    1  ****        0.000000
     19  C         -2.8477    3.2110   11.8126  C.3    1  ****        0.000000
     20  C         -3.4249    3.0202   10.4326  C.3    1  ****        0.000000
     21  O         -2.4080    2.6850    9.5173  O.3    1  ****        0.000000
     22  C         -1.4265    3.6813    9.3669  C.3    1  ****        0.000000
     23  C         -0.7815    4.0723   10.7085  C.3    1  ****        0.000000
     24  C         -1.8645    4.3589   11.7445  C.3    1  ****        0.000000
     25  C          2.7873    3.4005   11.5198  C.3    1  ****        0.000000
     26  C          2.1765    4.7804   11.6253  C.3    1  ****        0.000000
     27  C          1.3702    5.1331   10.3874  C.3    1  ****        0.000000
     28  O          1.5939    4.2401    9.3229  O.3    1  ****        0.000000
     29  C          2.9646    4.0538    9.0931  C.3    1  ****        0.000000
     30  C          3.6338    3.3044   10.2560  C.3    1  ****        0.000000
     31  C          4.5396   -1.2740   10.1986  C.3    1  ****        0.000000
     32  C          5.6233   -0.7869   11.1467  C.3    1  ****        0.000000
     33  C          5.2978    0.6685   11.4268  C.3    1  ****        0.000000
     34  C          5.1463    1.4592   10.1431  C.3    1  ****        0.000000
     35  O          5.4229    0.6830    8.9975  O.3    1  ****        0.000000
     36  C          4.6622   -0.4908    8.8766  C.3    1  ****        0.000000
     37  O          0.2896   -3.9197    9.6970  O.3    1  ****        0.000000
     38  O          2.5250   -3.8173    8.3004  O.3    1  ****        0.000000
     39  O          3.9776   -6.0063   10.7838  O.3    1  ****        0.000000
     40  O          4.6083   -2.6359    9.9043  O.3    1  ****        0.000000
     41  C          5.2554   -1.2799    7.7116  C.3    1  ****        0.000000
     42  O          5.6339   -1.4711   12.3731  O.3    1  ****        0.000000
     43  O          6.3164    1.2130   12.2306  O.3    1  ****        0.000000
     44  O          3.8343    1.9504    9.9445  O.3    1  ****        0.000000
     45  C          3.1678    3.4254    7.7197  C.3    1  ****        0.000000
     46  O          3.5866    3.1854   12.6618  O.3    1  ****        0.000000
     47  O          1.4281    4.8502   12.8146  O.3    1  ****        0.000000
     48  O         -0.0224    5.2467   10.5906  O.3    1  ****        0.000000
     49  C         -1.9577    4.8490    8.5438  C.3    1  ****        0.000000
     50  O         -0.8846    5.5050    7.8947  O.3    1  ****        0.000000
     51  O          2.4610    2.2055    7.6159  O.3    1  ****        0.000000
     52  O         -1.2999    4.5146   13.0219  O.3    1  ****        0.000000
     53  O         -3.8596    3.5456   12.7304  O.3    1  ****        0.000000
     54  O         -4.4221    2.0192   10.3719  O.3    1  ****        0.000000
     55  C         -5.4585    0.1632    8.5328  C.3    1  ****        0.000000
     56  O         -5.5744   -0.7624    7.4701  O.3    1  ****        0.000000
     57  O         -4.6228    0.8416   12.9184  O.3    1  ****        0.000000
     58  O         -5.0093   -2.1736   12.5380  O.3    1  ****        0.000000
     59  O         -3.3185   -3.2559   10.8364  O.3    1  ****        0.000000
     60  C          2.8744   -4.1351   12.9942  C.3    1  ****        0.000000
     61  O          1.7785   -3.6575   13.7523  O.3    1  ****        0.000000
     62  C         -3.1713   -6.5826    9.2389  C.3    1  ****        0.000000
     63  O         -3.0962   -7.7607   10.0194  O.3    1  ****        0.000000
     64  O          6.4620   -1.9000    8.1095  O.3    1  ****        0.000000
     65  O         -3.1192   -2.9319    7.4762  O.3    1  ****        0.000000
     66  O         -0.4430   -3.6871    7.1325  O.3    1  ****        0.000000
     67  H         -3.1190   -5.5800   11.0832    H    1  ****        0.000000
     68  H         -4.2294   -4.1298    9.2526    H    1  ****        0.000000
     69  H         -1.7585   -2.4745    8.9146    H    1  ****        0.000000
     70  H         -1.8128   -5.1256    7.4030    H    1  ****        0.000000
     71  H          0.1017   -5.7883    8.7735    H    1  ****        0.000000
     72  H          1.2156   -5.1655   11.0707    H    1  ****        0.000000
     73  H          2.2747   -5.7348    8.8897    H    1  ****        0.000000
     74  H          4.6817   -4.9814    9.2062    H    1  ****        0.000000
     75  H          5.1009   -3.8224   11.4781    H    1  ****        0.000000
     76  H          3.1824   -2.2500   12.2048    H    1  ****        0.000000
     77  H         -2.4324   -1.4351   10.5708    H    1  ****        0.000000
     78  H         -3.3246   -0.0417    8.6559    H    1  ****        0.000000
     79  H         -2.8961    0.7104   10.8363    H    1  ****        0.000000
     80  H         -5.7812   -0.0558   11.5174    H    1  ****        0.000000
     81  H         -3.2302   -1.2194   12.7888    H    1  ****        0.000000
     82  H         -2.3436    2.2999   12.2017    H    1  ****        0.000000
     83  H         -3.9263    3.9583   10.0955    H    1  ****        0.000000
     84  H         -0.6374    3.1878    8.7451    H    1  ****        0.000000
     85  H         -0.1558    3.2344   11.0935    H    1  ****        0.000000
     86  H         -2.4018    5.3077   11.5175    H    1  ****        0.000000
     87  H          1.9869    2.6247   11.5315    H    1  ****        0.000000
     88  H          3.0054    5.5161   11.7398    H    1  ****        0.000000
     89  H          1.6812    6.1567   10.0487    H    1  ****        0.000000
     90  H          3.4357    5.0692    9.0178    H    1  ****        0.000000
     91  H          4.6012    3.8204   10.4564    H    1  ****        0.000000
     92  H          3.5275   -1.0373   10.5967    H    1  ****        0.000000
     93  H          6.6386   -0.9100   10.7064    H    1  ****        0.000000
     94  H          4.3679    0.7205   12.0397    H    1  ****        0.000000
     95  H          5.8942    2.2823   10.0951    H    1  ****        0.000000
     96  H          3.6351   -0.1998    8.5433    H    1  ****        0.000000
     97  H          1.6248   -3.6886    7.9828    H    1  ****        0.000000
     98  H          4.8937   -6.2612   10.9155    H    1  ****        0.000000
     99  H          5.4813   -0.6206    6.8424    H    1  ****        0.000000
    100  H          4.5747   -2.0865    7.3606    H    1  ****        0.000000
    101  H          6.2674   -1.0280   12.9446    H    1  ****        0.000000
    102  H          5.9798    1.9895   12.6857    H    1  ****        0.000000
    103  H          4.2453    3.2216    7.5225    H    1  ****        0.000000
    104  H          2.7746    4.0944    6.9208    H    1  ****        0.000000
    105  H          3.0601    3.3989   13.4390    H    1  ****        0.000000
    106  H          0.4989    5.0122   12.6551    H    1  ****        0.000000
    107  H         -2.6523    4.5046    7.7440    H    1  ****        0.000000
    108  H         -2.4827    5.6019    9.1698    H    1  ****        0.000000
    109  H         -0.1583    5.6255    8.5121    H    1  ****        0.000000
    110  H          2.9261    1.5405    8.1270    H    1  ****        0.000000
    111  H         -2.0127    4.5107   13.6672    H    1  ****        0.000000
    112  H         -4.4296    2.7873   12.8735    H    1  ****        0.000000
    113  H         -6.3797    0.0819    9.1520    H    1  ****        0.000000
    114  H         -5.4153    1.1765    8.0750    H    1  ****        0.000000
    115  H         -6.3420   -0.5466    6.9348    H    1  ****        0.000000
    116  H         -4.9962    0.3462   13.6516    H    1  ****        0.000000
    117  H         -4.6820   -3.0748   12.4850    H    1  ****        0.000000
    118  H          3.7832   -4.0839   13.6393    H    1  ****        0.000000
    119  H          2.6596   -5.2002   12.7700    H    1  ****        0.000000
    120  H          1.0298   -3.5544   13.1562    H    1  ****        0.000000
    121  H         -2.5776   -6.7844    8.3232    H    1  ****        0.000000
    122  H         -4.2396   -6.4646    8.9482    H    1  ****        0.000000
    123  H         -3.4037   -8.5076    9.4989    H    1  ****        0.000000
    124  H          6.2399   -2.6474    8.6720    H    1  ****        0.000000
    125  H         -3.7542   -2.2589    7.7390    H    1  ****        0.000000
    126  H         -0.9704   -3.2623    6.4503    H    1  ****        0.000000
@<TRIPOS>BOND
    1     1     2  1
    2     1     6  1
    3     1    62  1
    4     1    67  1
    5     2     3  1
    6     2    59  1
    7     2    68  1
    8     3     4  1
    9     3    65  1
   10     3    69  1
   11     4     5  1
   12     4    66  1
   13     4    70  1
   14     5     6  1
   15     5    37  1
   16     5    71  1
   17     7     8  1
   18     7    12  1
   19     7    37  1
   20     7    72  1
   21     8     9  1
   22     8    38  1
   23     8    73  1
   24     9    10  1
   25     9    39  1
   26     9    74  1
   27    10    11  1
   28    10    40  1
   29    10    75  1
   30    11    12  1
   31    11    60  1
   32    11    76  1
   33    13    14  1
   34    13    18  1
   35    13    59  1
   36    13    77  1
   37    14    15  1
   38    15    16  1
   39    15    55  1
   40    15    78  1
   41    16    17  1
   42    16    54  1
   43    16    79  1
   44    17    18  1
   45    17    57  1
   46    17    80  1
   47    18    58  1
   48    18    81  1
   49    19    20  1
   50    19    24  1
   51    19    53  1
   52    19    82  1
   53    20    21  1
   54    20    54  1
   55    20    83  1
   56    21    22  1
   57    22    23  1
   58    22    49  1
   59    22    84  1
   60    23    24  1
   61    23    48  1
   62    23    85  1
   63    24    52  1
   64    24    86  1
   65    25    26  1
   66    25    30  1
   67    25    46  1
   68    25    87  1
   69    26    27  1
   70    26    47  1
   71    26    88  1
   72    27    28  1
   73    27    48  1
   74    27    89  1
   75    28    29  1
   76    29    30  1
   77    29    45  1
   78    29    90  1
   79    30    44  1
   80    30    91  1
   81    31    32  1
   82    31    36  1
   83    31    40  1
   84    31    92  1
   85    32    33  1
   86    32    42  1
   87    32    93  1
   88    33    34  1
   89    33    43  1
   90    33    94  1
   91    34    35  1
   92    34    44  1
   93    34    95  1
   94    35    36  1
   95    36    41  1
   96    36    96  1
   97    38    97  1
   98    39    98  1
   99    41    64  1
  100    41    99  1
  101    41   100  1
  102    42   101  1
  103    43   102  1
  104    45    51  1
  105    45   103  1
  106    45   104  1
  107    46   105  1
  108    47   106  1
  109    49    50  1
  110    49   107  1
  111    49   108  1
  112    50   109  1
  113    51   110  1
  114    52   111  1
  115    53   112  1
  116    55    56  1
  117    55   113  1
  118    55   114  1
  119    56   115  1
  120    57   116  1
  121    58   117  1
  122    60    61  1
  123    60   118  1
  124    60   119  1
  125    61   120  1
  126    62    63  1
  127    62   121  1
  128    62   122  1
  129    63   123  1
  130    64   124  1
  131    65   125  1
  132    66   126  1

@<TRIPOS>SUBSTRUCTURE
1 ****        1 TEMP                        0 ****  **** 0 ROOT
