@<TRIPOS>MOLECULE
generated by VMD
   12   12    1    0    0
SMALL
NO_CHARGES
****
Energy = 0

@<TRIPOS>ATOM
      1  C          0.8165    1.0656  125.0027 C.ar    1  ****        0.000000
      2  C          1.3311   -0.1743  125.0017 C.ar    1  ****        0.000000
      3  C          0.5146   -1.2399  124.9990 C.ar    1  ****        0.000000
      4  C         -0.8165   -1.0656  124.9973 C.ar    1  ****        0.000000
      5  C         -1.3311    0.1743  124.9983 C.ar    1  ****        0.000000
      6  C         -0.5146    1.2399  125.0009 C.ar    1  ****        0.000000
      7  H          1.4873    1.9411  125.0049    H    1  ****        0.000000
      8  H          2.4247   -0.3175  125.0032    H    1  ****        0.000000
      9  H          0.9373   -2.2586  124.9982    H    1  ****        0.000000
     10  H         -1.4873   -1.9411  124.9950    H    1  ****        0.000000
     11  H         -2.4247    0.3175  124.9970    H    1  ****        0.000000
     12  H         -0.9373    2.2586  125.0017    H    1  ****        0.000000
@<TRIPOS>BOND
    1     1     2  1
    2     1     6  2
    3     1     7  1
    4     2     3  2
    5     2     8  1
    6     3     4  1
    7     3     9  1
    8     4     5  2
    9     4    10  1
   10     5     6  1
   11     5    11  1
   12     6    12  1

@<TRIPOS>SUBSTRUCTURE
1 ****        1 TEMP                        0 ****  **** 0 ROOT
