@<TRIPOS>MOLECULE
generated by VMD
  820 1194    1    0    0
SMALL
NO_CHARGES
****
Energy = 0

@<TRIPOS>ATOM
      1  C          5.3843    1.8732   39.8375  C.2    1  ****        0.000000
      2  C          4.4566    3.0835   39.7777  C.2    1  ****        0.000000
      3  C          4.4532    3.9350   41.0467  C.2    1  ****        0.000000
      4  C          5.0552    1.0476   41.0757  C.2    1  ****        0.000000
      5  C          5.3905    1.8821   42.3037  C.2    1  ****        0.000000
      6  C          5.0890    1.0925   43.5672  C.2    1  ****        0.000000
      7  C          5.5318    1.9093   44.7799  C.2    1  ****        0.000000
      8  C         -0.0017    4.8777   39.0638  C.2    1  ****        0.000000
      9  C          2.3166    4.8065   39.9558  C.2    1  ****        0.000000
     10  C          3.2885    4.9350   41.1255  C.2    1  ****        0.000000
     11  C          2.6108    4.8393   42.4914  C.2    1  ****        0.000000
     12  C          4.4791    3.1033   42.3257  C.2    1  ****        0.000000
     13  C          4.7054    3.9982   43.5420  C.2    1  ****        0.000000
     14  C          4.7002    3.1856   44.8298  C.2    1  ****        0.000000
     15  C          4.9666    4.0662   46.0485  C.2    1  ****        0.000000
     16  C          5.1945    1.1684   46.0643  C.2    1  ****        0.000000
     17  C          5.6741    1.9351   47.2920  C.2    1  ****        0.000000
     18  C          5.2605    1.2005   48.5604  C.2    1  ****        0.000000
     19  C          5.7462    1.9167   49.8130  C.2    1  ****        0.000000
     20  C         -1.4609    5.2549   39.2993  C.2    1  ****        0.000000
     21  C         -1.8796    4.7990   40.6925  C.2    1  ****        0.000000
     22  C          0.9239    5.3932   40.1682  C.2    1  ****        0.000000
     23  C          0.3905    5.0737   41.5613  C.2    1  ****        0.000000
     24  C          1.3310    5.6557   42.6103  C.2    1  ****        0.000000
     25  C          0.7465    5.4756   44.0090  C.2    1  ****        0.000000
     26  C          3.6104    5.0683   43.6203  C.2    1  ****        0.000000
     27  C          2.9257    5.0281   44.9853  C.2    1  ****        0.000000
     28  C          3.9305    5.1955   46.1192  C.2    1  ****        0.000000
     29  C          3.2220    5.2016   47.4732  C.2    1  ****        0.000000
     30  C          4.9075    3.2511   47.3340  C.2    1  ****        0.000000
     31  C          5.2012    4.1039   48.5640  C.2    1  ****        0.000000
     32  C          5.0743    3.2838   49.8433  C.2    1  ****        0.000000
     33  C          5.3964    4.1001   51.0908  C.2    1  ****        0.000000
     34  C          5.7910    1.8738   52.3127  C.2    1  ****        0.000000
     35  C         -4.0717    3.8620   39.9846  C.2    1  ****        0.000000
     36  C         -3.3873    4.8549   40.9203  C.2    1  ****        0.000000
     37  C         -3.6368    4.4919   42.3806  C.2    1  ****        0.000000
     38  C         -1.0492    5.5449   41.7334  C.2    1  ****        0.000000
     39  C         -1.5249    5.2808   43.1596  C.2    1  ****        0.000000
     40  C         -0.6573    6.0610   44.1351  C.2    1  ****        0.000000
     41  C         -1.1482    5.8711   45.5658  C.2    1  ****        0.000000
     42  C          1.7245    5.9594   45.0752  C.2    1  ****        0.000000
     43  C          1.0927    5.8636   46.4637  C.2    1  ****        0.000000
     44  C          2.0947    6.2291   47.5504  C.2    1  ****        0.000000
     45  C          1.4158    6.1681   48.9186  C.2    1  ****        0.000000
     46  C          4.2300    5.2896   48.6156  C.2    1  ****        0.000000
     47  C          3.5078    5.3318   49.9589  C.2    1  ****        0.000000
     48  C          4.5073    5.3478   51.1163  C.2    1  ****        0.000000
     49  C          3.7983    5.4620   52.4618  C.2    1  ****        0.000000
     50  C          5.1899    3.2741   52.3590  C.2    1  ****        0.000000
     51  C          5.5123    4.0343   53.6444  C.2    1  ****        0.000000
     52  C          5.1667    3.1741   54.8615  C.2    1  ****        0.000000
     53  C          5.3761    3.9279   56.1647  C.2    1  ****        0.000000
     54  C         -5.4345    1.0806   39.5327  C.2    1  ****        0.000000
     55  C         -5.7110    0.6489   40.9700  C.2    1  ****        0.000000
     56  C         -5.5439    3.6610   40.3245  C.2    1  ****        0.000000
     57  C         -5.7066    3.1343   41.7448  C.2    1  ****        0.000000
     58  C         -5.0750    4.1350   42.7132  C.2    1  ****        0.000000
     59  C         -5.2072    3.7023   44.1618  C.2    1  ****        0.000000
     60  C         -3.0152    5.5733   43.2663  C.2    1  ****        0.000000
     61  C         -3.5595    5.6125   44.6929  C.2    1  ****        0.000000
     62  C         -2.6176    6.2200   45.7371  C.2    1  ****        0.000000
     63  C         -3.0707    6.0549   47.1865  C.2    1  ****        0.000000
     64  C         -0.2076    6.6570   46.4820  C.2    1  ****        0.000000
     65  C         -0.7776    6.9849   47.8587  C.2    1  ****        0.000000
     66  C          0.2523    7.1535   48.9747  C.2    1  ****        0.000000
     67  C         -0.3643    7.3289   50.3606  C.2    1  ****        0.000000
     68  C          2.4626    6.4438   50.0001  C.2    1  ****        0.000000
     69  C          1.8163    6.4449   51.3776  C.2    1  ****        0.000000
     70  C          2.8638    6.6616   52.4760  C.2    1  ****        0.000000
     71  C          2.2395    6.6750   53.8637  C.2    1  ****        0.000000
     72  C          4.7971    5.3816   53.6123  C.2    1  ****        0.000000
     73  C          4.4288    5.9998   54.9528  C.2    1  ****        0.000000
     74  C          4.3942    5.0946   56.1809  C.2    1  ****        0.000000
     75  C          4.5316    5.9099   57.4680  C.2    1  ****        0.000000
     76  C          5.0784    3.0134   57.3567  C.2    1  ****        0.000000
     77  C          5.2509    3.7984   58.6561  C.2    1  ****        0.000000
     78  C          5.0055    2.9160   59.8808  C.2    1  ****        0.000000
     79  C          5.2826    3.7339   61.1395  C.2    1  ****        0.000000
     80  C         -5.4527   -1.8472   40.3456  C.2    1  ****        0.000000
     81  C         -5.0654   -0.7066   41.2847  C.2    1  ****        0.000000
     82  C         -5.3976   -1.1843   42.6953  C.2    1  ****        0.000000
     83  C         -5.2151    1.7001   41.9708  C.2    1  ****        0.000000
     84  C         -5.6656    1.2695   43.3664  C.2    1  ****        0.000000
     85  C         -5.0855    2.2078   44.4104  C.2    1  ****        0.000000
     86  C         -5.6289    1.8825   45.7960  C.2    1  ****        0.000000
     87  C         -4.1286    4.2619   45.0840  C.2    1  ****        0.000000
     88  C         -4.7370    4.2196   46.4742  C.2    1  ****        0.000000
     89  C         -3.7412    4.7267   47.4980  C.2    1  ****        0.000000
     90  C         -4.4351    4.7563   48.8538  C.2    1  ****        0.000000
     91  C         -1.9425    6.0824   48.2197  C.2    1  ****        0.000000
     92  C         -2.5692    6.3790   49.5778  C.2    1  ****        0.000000
     93  C         -1.5356    6.4123   50.6951  C.2    1  ****        0.000000
     94  C         -2.2764    6.8777   51.9451  C.2    1  ****        0.000000
     95  C          0.6550    7.4267   51.4907  C.2    1  ****        0.000000
     96  C          0.0548    7.1028   52.8497  C.2    1  ****        0.000000
     97  C          1.0081    7.5722   53.9420  C.2    1  ****        0.000000
     98  C          0.4412    7.3553   55.3349  C.2    1  ****        0.000000
     99  C          3.2715    6.9971   54.9405  C.2    1  ****        0.000000
    100  C          2.6072    7.0083   56.3144  C.2    1  ****        0.000000
    101  C          3.6111    7.1309   57.4468  C.2    1  ****        0.000000
    102  C          3.1244    7.6966   58.7777  C.2    1  ****        0.000000
    103  C          4.3090    5.0048   58.6750  C.2    1  ****        0.000000
    104  C          4.4825    5.8363   59.9411  C.2    1  ****        0.000000
    105  C          4.3573    4.9455   61.1707  C.2    1  ****        0.000000
    106  C          4.5302    5.7917   62.4278  C.2    1  ****        0.000000
    107  C          4.9405    2.8999   62.3644  C.2    1  ****        0.000000
    108  C          5.2413    3.6690   63.6457  C.2    1  ****        0.000000
    109  C          5.2285    3.6107   66.1300  C.2    1  ****        0.000000
    110  C         -2.3410   -4.5861   41.1885  C.2    1  ****        0.000000
    111  C         -4.5491   -3.0537   40.5888  C.2    1  ****        0.000000
    112  C         -4.4911   -3.5112   42.0430  C.2    1  ****        0.000000
    113  C         -4.4937   -2.3615   43.0437  C.2    1  ****        0.000000
    114  C         -4.7204   -2.9103   44.4510  C.2    1  ****        0.000000
    115  C         -5.1058   -0.1034   43.7256  C.2    1  ****        0.000000
    116  C         -5.5490   -0.5809   45.1082  C.2    1  ****        0.000000
    117  C         -5.2176    0.4647   46.1622  C.2    1  ****        0.000000
    118  C         -5.6926    0.0382   47.5471  C.2    1  ****        0.000000
    119  C         -4.9355    2.7521   46.8344  C.2    1  ****        0.000000
    120  C         -5.5417    2.5260   48.2096  C.2    1  ****        0.000000
    121  C         -4.7649    3.3241   49.2450  C.2    1  ****        0.000000
    122  C         -5.4145    3.1770   50.6123  C.2    1  ****        0.000000
    123  C         -3.4921    5.2284   49.9482  C.2    1  ****        0.000000
    124  C         -4.2911    5.3873   51.2339  C.2    1  ****        0.000000
    125  C         -3.5627    6.1527   52.3266  C.2    1  ****        0.000000
    126  C         -3.5511    5.4643   53.6840  C.2    1  ****        0.000000
    127  C         -1.4123    7.4406   53.0638  C.2    1  ****        0.000000
    128  C         -1.7340    6.8781   54.4401  C.2    1  ****        0.000000
    129  C         -1.0275    7.7073   55.5021  C.2    1  ****        0.000000
    130  C         -1.3828    7.2262   56.8988  C.2    1  ****        0.000000
    131  C          1.3795    7.8996   56.4022  C.2    1  ****        0.000000
    132  C          0.8177    7.6616   57.7954  C.2    1  ****        0.000000
    133  C          1.7207    8.3081   58.8328  C.2    1  ****        0.000000
    134  C          1.1181    8.1164   60.2256  C.2    1  ****        0.000000
    135  C          3.3372    6.8369   60.0111  C.2    1  ****        0.000000
    136  C          3.3105    7.6914   61.2802  C.2    1  ****        0.000000
    137  C          3.3634    6.7698   62.4864  C.2    1  ****        0.000000
    138  C          3.3457    7.6264   63.7410  C.2    1  ****        0.000000
    139  C          4.4000    4.9331   63.6760  C.2    1  ****        0.000000
    140  C          4.6896    5.7715   64.9138  C.2    1  ****        0.000000
    141  C          4.5119    4.9511   66.1858  C.2    1  ****        0.000000
    142  C          4.9879    5.8046   67.3465  C.2    1  ****        0.000000
    143  C          5.5779    3.5485   68.5400  C.2    1  ****        0.000000
    144  C         -0.0253   -4.8936   40.3390  C.2    1  ****        0.000000
    145  C         -0.9514   -5.1130   41.5373  C.2    1  ****        0.000000
    146  C         -0.4135   -4.4611   42.8077  C.2    1  ****        0.000000
    147  C         -3.3136   -4.4477   42.3567  C.2    1  ****        0.000000
    148  C         -2.6336   -4.0045   43.6508  C.2    1  ****        0.000000
    149  C         -3.6307   -3.9302   44.8020  C.2    1  ****        0.000000
    150  C         -2.9417   -3.5420   46.1087  C.2    1  ****        0.000000
    151  C         -4.7116   -1.7960   45.4874  C.2    1  ****        0.000000
    152  C         -4.9801   -2.3371   46.8900  C.2    1  ****        0.000000
    153  C         -4.9223   -1.2209   47.9247  C.2    1  ****        0.000000
    154  C         -5.2136   -1.7309   49.3324  C.2    1  ****        0.000000
    155  C         -5.2779    1.0737   48.5840  C.2    1  ****        0.000000
    156  C         -5.7598    0.7028   49.9799  C.2    1  ****        0.000000
    157  C         -5.2551    1.7140   51.0032  C.2    1  ****        0.000000
    158  C         -5.7994    1.3857   52.3845  C.2    1  ****        0.000000
    159  C         -4.6693    3.9784   51.6749  C.2    1  ****        0.000000
    160  C         -5.4239    3.8601   52.9927  C.2    1  ****        0.000000
    161  C         -4.8714    4.7953   54.0604  C.2    1  ****        0.000000
    162  C         -4.7327    4.1395   55.4355  C.2    1  ****        0.000000
    163  C         -3.1846    6.5237   54.7173  C.2    1  ****        0.000000
    164  C         -3.2654    5.9548   56.1296  C.2    1  ****        0.000000
    165  C         -2.8734    7.0391   57.1233  C.2    1  ****        0.000000
    166  C         -3.0404    6.5290   58.5455  C.2    1  ****        0.000000
    167  C         -0.6478    8.0537   57.9410  C.2    1  ****        0.000000
    168  C         -1.0686    7.6512   59.3480  C.2    1  ****        0.000000
    169  C         -0.3426    8.5123   60.3689  C.2    1  ****        0.000000
    170  C         -0.7926    8.1783   61.7887  C.2    1  ****        0.000000
    171  C          2.0636    8.5839   61.3152  C.2    1  ****        0.000000
    172  C          1.4442    8.9321   62.6704  C.2    1  ****        0.000000
    173  C          1.9042    8.0971   63.8520  C.2    1  ****        0.000000
    174  C          1.6282    8.8769   65.1284  C.2    1  ****        0.000000
    175  C          3.5936    6.8148   65.0011  C.2    1  ****        0.000000
    176  C          3.6627    7.7512   66.1958  C.2    1  ****        0.000000
    177  C          4.2411    7.1327   67.4645  C.2    1  ****        0.000000
    178  C          3.3268    7.2453   68.6741  C.2    1  ****        0.000000
    179  C          5.3200    5.0516   68.6312  C.2    1  ****        0.000000
    180  C          4.0521   -3.7119   40.9673  C.2    1  ****        0.000000
    181  C          1.4319   -5.2093   40.6606  C.2    1  ****        0.000000
    182  C          1.8557   -4.4198   41.8939  C.2    1  ****        0.000000
    183  C          1.0260   -4.8759   43.0907  C.2    1  ****        0.000000
    184  C          1.5049   -4.2574   44.4018  C.2    1  ****        0.000000
    185  C         -1.3516   -4.7607   43.9714  C.2    1  ****        0.000000
    186  C         -0.7652   -4.2283   45.2766  C.2    1  ****        0.000000
    187  C         -1.7414   -4.4209   46.4328  C.2    1  ****        0.000000
    188  C         -1.1070   -3.9715   47.7489  C.2    1  ****        0.000000
    189  C         -3.9448   -3.4109   47.2486  C.2    1  ****        0.000000
    190  C         -3.2340   -3.0698   48.5576  C.2    1  ****        0.000000
    191  C         -4.2409   -2.8627   49.6854  C.2    1  ****        0.000000
    192  C         -3.5172   -2.5591   50.9938  C.2    1  ****        0.000000
    193  C         -5.0863   -0.6102   50.3587  C.2    1  ****        0.000000
    194  C         -5.4056   -1.0796   51.7744  C.2    1  ****        0.000000
    195  C         -5.1976    0.0441   52.7878  C.2    1  ****        0.000000
    196  C         -5.5178   -0.3608   54.2257  C.2    1  ****        0.000000
    197  C         -5.3313    2.4019   53.4199  C.2    1  ****        0.000000
    198  C         -5.9368    2.0389   54.7696  C.2    1  ****        0.000000
    199  C         -5.8835    3.1971   55.7589  C.2    1  ****        0.000000
    200  C         -5.9815    2.7649   57.2207  C.2    1  ****        0.000000
    201  C         -4.5890    5.2703   56.4443  C.2    1  ****        0.000000
    202  C         -4.5677    4.7489   57.8780  C.2    1  ****        0.000000
    203  C         -4.4294    5.9613   58.7943  C.2    1  ****        0.000000
    204  C         -4.4934    5.5817   60.2641  C.2    1  ****        0.000000
    205  C         -2.5763    7.5958   59.5297  C.2    1  ****        0.000000
    206  C         -2.8668    7.1783   60.9670  C.2    1  ****        0.000000
    207  C         -2.3128    8.2144   61.9339  C.2    1  ****        0.000000
    208  C         -2.6758    7.8536   63.3698  C.2    1  ****        0.000000
    209  C         -0.0711    9.1394   62.7186  C.2    1  ****        0.000000
    210  C         -0.6901    9.3006   64.1052  C.2    1  ****        0.000000
    211  C          0.1190    8.8598   65.3156  C.2    1  ****        0.000000
    212  C         -0.3108    9.6347   66.5575  C.2    1  ****        0.000000
    213  C          2.2235    8.2212   66.3713  C.2    1  ****        0.000000
    214  C          1.9703    9.1231   67.5695  C.2    1  ****        0.000000
    215  C          2.7101    8.6361   68.8060  C.2    1  ****        0.000000
    216  C          5.5246   -3.4385   41.2482  C.2    1  ****        0.000000
    217  C          5.6944   -2.5528   42.4754  C.2    1  ****        0.000000
    218  C          3.3634   -4.4236   42.1277  C.2    1  ****        0.000000
    219  C          3.6164   -3.6941   43.4430  C.2    1  ****        0.000000
    220  C          2.9957   -4.5117   44.5776  C.2    1  ****        0.000000
    221  C          3.5426   -4.1853   45.9656  C.2    1  ****        0.000000
    222  C          0.6393   -4.7614   45.5462  C.2    1  ****        0.000000
    223  C          1.1325   -4.2107   46.8796  C.2    1  ****        0.000000
    224  C          0.1933   -4.7343   47.9685  C.2    1  ****        0.000000
    225  C          0.7651   -4.6981   49.3824  C.2    1  ****        0.000000
    226  C         -2.1072   -4.0441   48.8945  C.2    1  ****        0.000000
    227  C         -1.4262   -3.6345   50.2001  C.2    1  ****        0.000000
    228  C         -2.4715   -3.6233   51.3176  C.2    1  ****        0.000000
    229  C         -1.8234   -3.2711   52.6485  C.2    1  ****        0.000000
    230  C         -4.5154   -2.2786   52.1178  C.2    1  ****        0.000000
    231  C         -3.8047   -2.0438   53.4469  C.2    1  ****        0.000000
    232  C         -4.8021   -1.6712   54.5395  C.2    1  ****        0.000000
    233  C         -4.4316   -1.9245   55.9932  C.2    1  ****        0.000000
    234  C         -5.1705    0.7830   55.1805  C.2    1  ****        0.000000
    235  C         -5.3779    0.3889   56.6337  C.2    1  ****        0.000000
    236  C         -5.0786    1.5790   57.5502  C.2    1  ****        0.000000
    237  C         -5.2487    1.1539   59.0079  C.2    1  ****        0.000000
    238  C         -5.8216    3.9409   58.1855  C.2    1  ****        0.000000
    239  C         -5.8876    3.5258   59.6546  C.2    1  ****        0.000000
    240  C         -5.6788    4.7027   60.6144  C.2    1  ****        0.000000
    241  C         -5.6025    4.3138   62.0859  C.2    1  ****        0.000000
    242  C         -4.3493    6.8601   61.0959  C.2    1  ****        0.000000
    243  C         -4.8408    6.7296   62.5326  C.2    1  ****        0.000000
    244  C         -4.1868    7.6904   63.5295  C.2    1  ****        0.000000
    245  C         -4.6196    7.4392   64.9753  C.2    1  ****        0.000000
    246  C         -2.1704    8.9631   64.2907  C.2    1  ****        0.000000
    247  C         -2.4616    8.5826   65.7415  C.2    1  ****        0.000000
    248  C         -1.8227    9.5358   66.7518  C.2    1  ****        0.000000
    249  C         -2.3428    9.5366   68.1930  C.2    1  ****        0.000000
    250  C          0.4633    9.1712   67.7843  C.2    1  ****        0.000000
    251  C          5.5084   -0.9743   39.7408  C.2    1  ****        0.000000
    252  C          5.7339   -0.3228   41.1008  C.2    1  ****        0.000000
    253  C          5.2157   -1.1058   42.3149  C.2    1  ****        0.000000
    254  C          5.6436   -0.3302   43.5644  C.2    1  ****        0.000000
    255  C          5.0552   -3.2633   43.6701  C.2    1  ****        0.000000
    256  C          5.1893   -2.4747   44.9595  C.2    1  ****        0.000000
    257  C          4.1128   -2.7801   45.9965  C.2    1  ****        0.000000
    258  C          4.7223   -2.3822   47.3286  C.2    1  ****        0.000000
    259  C          2.6023   -4.5042   47.1324  C.2    1  ****        0.000000
    260  C          3.0578   -3.9739   48.4905  C.2    1  ****        0.000000
    261  C          1.9316   -3.7348   49.4981  C.2    1  ****        0.000000
    262  C          2.5603   -3.6734   50.8861  C.2    1  ****        0.000000
    263  C         -0.2629   -4.5734   50.5059  C.2    1  ****        0.000000
    264  C          0.3556   -4.3880   51.8894  C.2    1  ****        0.000000
    265  C         -0.6618   -4.1911   53.0083  C.2    1  ****        0.000000
    266  C         -0.0595   -3.5295   54.2378  C.2    1  ****        0.000000
    267  C         -2.8693   -3.1992   53.7672  C.2    1  ****        0.000000
    268  C         -2.2431   -2.8557   55.1111  C.2    1  ****        0.000000
    269  C         -3.2735   -2.8911   56.2357  C.2    1  ****        0.000000
    270  C         -2.6075   -2.5495   57.5657  C.2    1  ****        0.000000
    271  C         -4.3955   -0.7346   56.9477  C.2    1  ****        0.000000
    272  C         -4.5308   -1.1920   58.4012  C.2    1  ****        0.000000
    273  C         -4.3064   -0.0072   59.3347  C.2    1  ****        0.000000
    274  C         -4.4782   -0.4857   60.7720  C.2    1  ****        0.000000
    275  C         -5.0018    2.3214   59.9641  C.2    1  ****        0.000000
    276  C         -5.2766    1.8541   61.3910  C.2    1  ****        0.000000
    277  C         -4.9325    2.9752   62.3594  C.2    1  ****        0.000000
    278  C         -5.2311    2.5611   63.7958  C.2    1  ****        0.000000
    279  C         -4.7891    5.2750   62.9568  C.2    1  ****        0.000000
    280  C         -5.2217    5.0411   64.3933  C.2    1  ****        0.000000
    281  C         -4.5503    5.9774   65.3871  C.2    1  ****        0.000000
    282  C         -5.2478    5.7056   66.7177  C.2    1  ****        0.000000
    283  C         -3.9378    8.3309   66.0130  C.2    1  ****        0.000000
    284  C         -3.9305    7.7326   67.4161  C.2    1  ****        0.000000
    285  C         -3.6819    8.8469   68.4208  C.2    1  ****        0.000000
    286  C          5.0624   -0.9673   44.8147  C.2    1  ****        0.000000
    287  C          5.6058   -0.2962   46.0704  C.2    1  ****        0.000000
    288  C          4.9176   -0.8711   47.2996  C.2    1  ****        0.000000
    289  C          5.5259   -0.2990   48.5697  C.2    1  ****        0.000000
    290  C          3.7289   -2.6105   48.4501  C.2    1  ****        0.000000
    291  C          4.4247   -2.2910   49.7670  C.2    1  ****        0.000000
    292  C          3.4839   -2.4670   50.9475  C.2    1  ****        0.000000
    293  C          4.2842   -2.2896   52.2302  C.2    1  ****        0.000000
    294  C          1.5284   -3.4176   51.9759  C.2    1  ****        0.000000
    295  C          2.2705   -3.5467   53.3028  C.2    1  ****        0.000000
    296  C          1.4077   -3.8027   54.5295  C.2    1  ****        0.000000
    297  C          1.7319   -2.9068   55.7155  C.2    1  ****        0.000000
    298  C         -1.0112   -3.7027   55.4154  C.2    1  ****        0.000000
    299  C         -0.4424   -3.1361   56.7055  C.2    1  ****        0.000000
    300  C         -1.3793   -3.3883   57.8777  C.2    1  ****        0.000000
    301  C         -0.8159   -2.8015   59.1630  C.2    1  ****        0.000000
    302  C         -3.6100   -2.3775   58.6928  C.2    1  ****        0.000000
    303  C         -3.1214   -2.5828   60.1238  C.2    1  ****        0.000000
    304  C         -3.3328   -1.4352   61.0953  C.2    1  ****        0.000000
    305  C         -3.3050   -1.9353   62.5412  C.2    1  ****        0.000000
    306  C         -4.3510    0.6911   61.7311  C.2    1  ****        0.000000
    307  C         -4.5228    0.1963   63.1637  C.2    1  ****        0.000000
    308  C         -4.3900    1.3468   64.1489  C.2    1  ****        0.000000
    309  C         -4.6793    0.8549   65.5607  C.2    1  ****        0.000000
    310  C         -4.7758    3.6372   64.7749  C.2    1  ****        0.000000
    311  C         -5.2148    3.2558   66.1807  C.2    1  ****        0.000000
    312  C         -4.8447    4.3189   67.2101  C.2    1  ****        0.000000
    313  C         -5.5642    3.9353   68.4922  C.2    1  ****        0.000000
    314  C         -5.0988    6.8196   67.7452  C.2    1  ****        0.000000
    315  C         -4.8357    6.2970   69.1490  C.2    1  ****        0.000000
    316  C          4.7530   -0.8060   49.7772  C.2    1  ****        0.000000
    317  C          5.4043   -0.3122   51.0599  C.2    1  ****        0.000000
    318  C          4.6619   -0.8147   52.2942  C.2    1  ****        0.000000
    319  C          5.4182   -0.3616   53.5364  C.2    1  ****        0.000000
    320  C          3.5575   -2.7489   53.4839  C.2    1  ****        0.000000
    321  C          3.5479   -1.7354   54.6195  C.2    1  ****        0.000000
    322  C          3.1829   -2.4939   55.8907  C.2    1  ****        0.000000
    323  C          3.2655   -1.5818   57.1097  C.2    1  ****        0.000000
    324  C          1.0263   -3.4348   56.9556  C.2    1  ****        0.000000
    325  C          1.3837   -2.6119   58.1820  C.2    1  ****        0.000000
    326  C          0.6498   -3.1435   59.4027  C.2    1  ****        0.000000
    327  C          1.0722   -2.3935   60.6589  C.2    1  ****        0.000000
    328  C         -1.7176   -3.1598   60.3324  C.2    1  ****        0.000000
    329  C         -1.1136   -2.6176   61.6289  C.2    1  ****        0.000000
    330  C         -2.0580   -2.7893   62.8029  C.2    1  ****        0.000000
    331  C         -1.4374   -2.7778   64.2015  C.2    1  ****        0.000000
    332  C         -3.3566   -0.7351   63.4705  C.2    1  ****        0.000000
    333  C         -3.3387   -1.2410   64.9029  C.2    1  ****        0.000000
    334  C         -3.5848   -0.1329   65.9124  C.2    1  ****        0.000000
    335  C         -3.6538   -0.7309   67.3075  C.2    1  ****        0.000000
    336  C         -4.4988    1.9744   66.5788  C.2    1  ****        0.000000
    337  C         -4.9754    1.4480   67.9197  C.2    1  ****        0.000000
    338  C         -5.3054    2.5066   68.9677  C.2    1  ****        0.000000
    339  C          5.2442    1.2021   51.0627  C.2    1  ****        0.000000
    340  C          5.3253    1.1573   53.5752  C.2    1  ****        0.000000
    341  C          5.9325    1.8546   54.7857  C.2    1  ****        0.000000
    342  C          4.8682   -0.9918   54.8094  C.2    1  ****        0.000000
    343  C          4.7309   -0.0054   55.9707  C.2    1  ****        0.000000
    344  C          4.5891   -0.8390   57.2366  C.2    1  ****        0.000000
    345  C          4.5691    0.0331   58.4885  C.2    1  ****        0.000000
    346  C          2.8746   -2.3738   58.3495  C.2    1  ****        0.000000
    347  C          3.0431   -1.5158   59.5928  C.2    1  ****        0.000000
    348  C          2.5801   -2.2932   60.8190  C.2    1  ****        0.000000
    349  C          2.8716   -1.5200   62.1006  C.2    1  ****        0.000000
    350  C          0.3474   -2.9632   61.8676  C.2    1  ****        0.000000
    351  C          0.7985   -2.2753   63.1535  C.2    1  ****        0.000000
    352  C          0.0781   -2.9649   64.3001  C.2    1  ****        0.000000
    353  C          0.6980   -2.7639   65.6812  C.2    1  ****        0.000000
    354  C         -1.8973   -1.6681   65.1299  C.2    1  ****        0.000000
    355  C         -1.6202   -2.0941   66.5635  C.2    1  ****        0.000000
    356  C         -2.2150   -1.1416   67.5968  C.2    1  ****        0.000000
    357  C         -1.9611   -1.7053   68.9865  C.2    1  ****        0.000000
    358  C         -4.2299    0.1942   68.3751  C.2    1  ****        0.000000
    359  C         -3.3138    0.3954   69.5718  C.2    1  ****        0.000000
    360  C          5.8811    0.9893   56.0395  C.2    1  ****        0.000000
    361  C          5.9808    1.7822   57.3414  C.2    1  ****        0.000000
    362  C          5.8226    0.8937   58.5764  C.2    1  ****        0.000000
    363  C          5.8904    1.6718   59.8897  C.2    1  ****        0.000000
    364  C          4.4319   -0.9027   59.6861  C.2    1  ****        0.000000
    365  C          4.4974   -0.1579   61.0090  C.2    1  ****        0.000000
    366  C          4.3540   -1.1788   62.1423  C.2    1  ****        0.000000
    367  C          4.8468   -0.6837   63.4969  C.2    1  ****        0.000000
    368  C          2.3186   -2.2722   63.3021  C.2    1  ****        0.000000
    369  C          2.6826   -1.5540   64.5969  C.2    1  ****        0.000000
    370  C          2.1782   -2.3890   65.7727  C.2    1  ****        0.000000
    371  C          2.4699   -1.6484   67.0770  C.2    1  ****        0.000000
    372  C         -0.1109   -2.0283   66.7385  C.2    1  ****        0.000000
    373  C          0.3204   -2.4584   68.1374  C.2    1  ****        0.000000
    374  C         -0.4542   -1.6970   69.2049  C.2    1  ****        0.000000
    375  C         -2.6994   -0.9160   70.0567  C.2    1  ****        0.000000
    376  C          5.6830    0.7814   61.1202  C.2    1  ****        0.000000
    377  C          5.6093    1.5353   62.4428  C.2    1  ****        0.000000
    378  C          4.7975    0.8311   63.5334  C.2    1  ****        0.000000
    379  C          5.2324    1.4256   64.8613  C.2    1  ****        0.000000
    380  C          4.1936   -1.3549   64.7084  C.2    1  ****        0.000000
    381  C          4.6276   -0.7411   66.0412  C.2    1  ****        0.000000
    382  C          3.9460   -1.3346   67.2741  C.2    1  ****        0.000000
    383  C          3.9396   -0.3957   68.4765  C.2    1  ****        0.000000
    384  C          1.8322   -2.3106   68.2986  C.2    1  ****        0.000000
    385  C          2.3524   -1.9401   69.6913  C.2    1  ****        0.000000
    386  C          4.7883    2.8810   64.8697  C.2    1  ****        0.000000
    387  C          4.5617    0.7775   66.0635  C.2    1  ****        0.000000
    388  C          5.2596    1.3814   67.2800  C.2    1  ****        0.000000
    389  C          5.1085    0.5705   68.5603  C.2    1  ****        0.000000
    390  C          4.8466    1.4372   69.7828  C.2    1  ****        0.000000
    391  C          3.6906   -1.2133   69.7343  C.2    1  ****        0.000000
    392  C          4.8588    2.8486   67.3988  C.2    1  ****        0.000000
    393  C          4.5090    5.4410   69.8526  C.2    1  ****        0.000000
    394  C          4.1998    6.9310   69.8828  C.2    1  ****        0.000000
    395  C          3.4957    7.2568   71.1901  C.2    1  ****        0.000000
    396  C          5.2908    4.9707   71.0741  C.2    1  ****        0.000000
    397  C          4.6474    5.4832   72.3537  C.2    1  ****        0.000000
    398  C          5.3872    4.9491   73.5719  C.2    1  ****        0.000000
    399  C          4.8265    5.5536   74.8549  C.2    1  ****        0.000000
    400  C         -0.0058    9.9689   68.9932  C.2    1  ****        0.000000
    401  C          1.8806    8.7110   70.0845  C.2    1  ****        0.000000
    402  C          2.9074    8.6620   71.2049  C.2    1  ****        0.000000
    403  C          2.2453    8.8619   72.5537  C.2    1  ****        0.000000
    404  C          4.4671    6.9922   72.3330  C.2    1  ****        0.000000
    405  C          3.8378    7.3939   73.6561  C.2    1  ****        0.000000
    406  C          4.7832    7.0732   74.8066  C.2    1  ****        0.000000
    407  C          4.2226    7.5969   76.1254  C.2    1  ****        0.000000
    408  C          5.5629    4.9986   76.0650  C.2    1  ****        0.000000
    409  C          5.0697    5.6474   77.3571  C.2    1  ****        0.000000
    410  C          5.9120    5.0882   78.4931  C.2    1  ****        0.000000
    411  C          5.8830    5.8961   79.7883  C.2    1  ****        0.000000
    412  C         -1.3352    9.3000   69.3159  C.2    1  ****        0.000000
    413  C         -1.9241    9.7401   70.6491  C.2    1  ****        0.000000
    414  C          1.0053    9.9552   70.1345  C.2    1  ****        0.000000
    415  C          0.4116   10.2897   71.5013  C.2    1  ****        0.000000
    416  C          1.4025   10.1235   72.6485  C.2    1  ****        0.000000
    417  C          0.7660    9.9678   74.0240  C.2    1  ****        0.000000
    418  C          3.3358    8.8282   73.6208  C.2    1  ****        0.000000
    419  C          2.8016    9.1313   75.0111  C.2    1  ****        0.000000
    420  C          3.9553    9.0929   76.0050  C.2    1  ****        0.000000
    421  C          3.6284    9.7869   77.3184  C.2    1  ****        0.000000
    422  C          5.1159    7.1738   77.2805  C.2    1  ****        0.000000
    423  C          4.5899    7.7588   78.5864  C.2    1  ****        0.000000
    424  C          5.5689    7.3900   79.6978  C.2    1  ****        0.000000
    425  C          5.0149    7.9107   81.0203  C.2    1  ****        0.000000
    426  C          5.8361    5.8891   82.2937  C.2    1  ****        0.000000
    427  C         -4.1150    8.6274   69.8660  C.2    1  ****        0.000000
    428  C         -3.0765    8.7975   70.9689  C.2    1  ****        0.000000
    429  C         -3.7274    9.0845   72.3253  C.2    1  ****        0.000000
    430  C         -0.9199    9.6184   71.7946  C.2    1  ****        0.000000
    431  C         -1.5884   10.1379   73.0703  C.2    1  ****        0.000000
    432  C         -0.6245   10.5433   74.1847  C.2    1  ****        0.000000
    433  C         -1.1557   10.4880   75.6110  C.2    1  ****        0.000000
    434  C          1.8345   10.3008   75.0617  C.2    1  ****        0.000000
    435  C          1.3180   10.5282   76.4721  C.2    1  ****        0.000000
    436  C          2.1285    9.8153   77.5610  C.2    1  ****        0.000000
    437  C          1.7645   10.4823   78.8782  C.2    1  ****        0.000000
    438  C          4.4551    9.2796   78.4991  C.2    1  ****        0.000000
    439  C          4.0622    9.9494   79.8146  C.2    1  ****        0.000000
    440  C          4.8148    9.4190   81.0306  C.2    1  ****        0.000000
    441  C          4.0823    9.6520   82.3455  C.2    1  ****        0.000000
    442  C          5.8211    7.4126   82.2150  C.2    1  ****        0.000000
    443  C          5.7499    8.1964   83.5246  C.2    1  ****        0.000000
    444  C          5.3581    7.4324   84.7812  C.2    1  ****        0.000000
    445  C          5.8433    8.2497   85.9750  C.2    1  ****        0.000000
    446  C         -5.6259    5.0486   69.5341  C.2    1  ****        0.000000
    447  C         -5.1110    4.6705   70.9141  C.2    1  ****        0.000000
    448  C         -5.0267    7.4340   70.1506  C.2    1  ****        0.000000
    449  C         -4.7982    6.9561   71.5826  C.2    1  ****        0.000000
    450  C         -4.8555    8.0891   72.5934  C.2    1  ****        0.000000
    451  C         -5.1882    7.7448   74.0415  C.2    1  ****        0.000000
    452  C         -2.6791    9.1338   73.4354  C.2    1  ****        0.000000
    453  C         -3.3578    9.4284   74.7658  C.2    1  ****        0.000000
    454  C         -2.2940    9.5036   75.8510  C.2    1  ****        0.000000
    455  C         -2.9419    9.7212   77.2167  C.2    1  ****        0.000000
    456  C         -0.1240   10.0907   76.6633  C.2    1  ****        0.000000
    457  C         -0.6396   10.5209   78.0313  C.2    1  ****        0.000000
    458  C          0.3114   10.1348   79.1578  C.2    1  ****        0.000000
    459  C         -0.2041   10.7328   80.4590  C.2    1  ****        0.000000
    460  C          2.5636    9.9623   80.0652  C.2    1  ****        0.000000
    461  C          2.1655   10.8455   81.2465  C.2    1  ****        0.000000
    462  C          3.1600   10.8554   82.4001  C.2    1  ****        0.000000
    463  C          2.5096   10.8045   83.7761  C.2    1  ****        0.000000
    464  C          5.1099    9.5806   83.4604  C.2    1  ****        0.000000
    465  C          4.7769   10.2705   84.7809  C.2    1  ****        0.000000
    466  C          4.9060    9.4410   86.0441  C.2    1  ****        0.000000
    467  C          5.0094   10.3771   87.2410  C.2    1  ****        0.000000
    468  C          5.8597    7.4669   87.2824  C.2    1  ****        0.000000
    469  C          5.2836    8.2434   88.4655  C.2    1  ****        0.000000
    470  C          5.6842    7.5031   89.7308  C.2    1  ****        0.000000
    471  C          5.3019    8.2722   90.9879  C.2    1  ****        0.000000
    472  C         -4.4915    2.4447   70.2463  C.2    1  ****        0.000000
    473  C         -5.2719    3.2141   71.3060  C.2    1  ****        0.000000
    474  C         -4.6258    3.0497   72.6734  C.2    1  ****        0.000000
    475  C         -5.5575    5.6931   71.9497  C.2    1  ****        0.000000
    476  C         -5.0767    5.3290   73.3469  C.2    1  ****        0.000000
    477  C         -5.6415    6.3165   74.3559  C.2    1  ****        0.000000
    478  C         -5.2181    5.9137   75.7705  C.2    1  ****        0.000000
    479  C         -4.2198    8.2183   75.1109  C.2    1  ****        0.000000
    480  C         -4.8888    8.2664   76.4862  C.2    1  ****        0.000000
    481  C         -3.8188    8.5169   77.5350  C.2    1  ****        0.000000
    482  C         -4.4785    8.5894   78.9031  C.2    1  ****        0.000000
    483  C         -1.8999    9.7270   78.3253  C.2    1  ****        0.000000
    484  C         -2.5349   10.1176   79.6515  C.2    1  ****        0.000000
    485  C         -1.5222   10.0515   80.7888  C.2    1  ****        0.000000
    486  C         -2.1862   10.6313   82.0226  C.2    1  ****        0.000000
    487  C          0.7358   10.4918   81.6368  C.2    1  ****        0.000000
    488  C          0.2166   11.3496   82.7783  C.2    1  ****        0.000000
    489  C          1.2078   11.5785   83.9171  C.2    1  ****        0.000000
    490  C          0.7319   11.2045   85.3134  C.2    1  ****        0.000000
    491  C          3.5450   11.1723   84.8344  C.2    1  ****        0.000000
    492  C          3.0463   11.5790   86.2300  C.2    1  ****        0.000000
    493  C          3.5434   10.7543   87.4155  C.2    1  ****        0.000000
    494  C          3.2267   11.4404   88.7363  C.2    1  ****        0.000000
    495  C          5.6446    9.7194   88.4630  C.2    1  ****        0.000000
    496  C          5.3187   10.4409   89.7747  C.2    1  ****        0.000000
    497  C          5.8691    9.6856   90.9908  C.2    1  ****        0.000000
    498  C          5.5539   10.3871   92.3180  C.2    1  ****        0.000000
    499  C          5.7733    7.4363   92.1687  C.2    1  ****        0.000000
    500  C          5.5625    8.1493   93.4902  C.2    1  ****        0.000000
    501  C          6.4452    7.9328   95.8777  C.2    1  ****        0.000000
    502  C         -1.8686   -0.6609   71.3107  C.2    1  ****        0.000000
    503  C         -4.1837    1.0127   70.6599  C.2    1  ****        0.000000
    504  C         -3.4773    1.0340   72.0060  C.2    1  ****        0.000000
    505  C         -4.4454    1.5867   73.0440  C.2    1  ****        0.000000
    506  C         -3.8131    1.5408   74.4248  C.2    1  ****        0.000000
    507  C         -5.3673    3.8786   73.7122  C.2    1  ****        0.000000
    508  C         -4.8039    3.6288   75.1071  C.2    1  ****        0.000000
    509  C         -5.5476    4.4726   76.1310  C.2    1  ****        0.000000
    510  C         -5.0493    4.1888   77.5467  C.2    1  ****        0.000000
    511  C         -5.6432    6.9638   76.7814  C.2    1  ****        0.000000
    512  C         -5.7808    6.5122   78.2373  C.2    1  ****        0.000000
    513  C         -4.8289    7.1471   79.2366  C.2    1  ****        0.000000
    514  C         -5.4078    6.9951   80.6365  C.2    1  ****        0.000000
    515  C         -3.5141    9.0146   79.9978  C.2    1  ****        0.000000
    516  C         -4.2441    9.1627   81.3217  C.2    1  ****        0.000000
    517  C         -3.4610    9.8858   82.4155  C.2    1  ****        0.000000
    518  C         -3.3540    9.0889   83.7059  C.2    1  ****        0.000000
    519  C         -1.2455   11.0905   83.1332  C.2    1  ****        0.000000
    520  C         -1.3907   10.3800   84.4651  C.2    1  ****        0.000000
    521  C         -0.7686   11.3084   85.5022  C.2    1  ****        0.000000
    522  C         -1.0500   10.8802   86.9336  C.2    1  ****        0.000000
    523  C          1.5713   11.9574   86.3336  C.2    1  ****        0.000000
    524  C          0.9871   12.1362   87.7346  C.2    1  ****        0.000000
    525  C          1.7076   11.4355   88.8800  C.2    1  ****        0.000000
    526  C          1.2736   12.0991   90.1828  C.2    1  ****        0.000000
    527  C          3.8189   10.6801   89.9233  C.2    1  ****        0.000000
    528  C          3.5109   11.4296   91.2188  C.2    1  ****        0.000000
    529  C          4.0639   10.6953   92.4389  C.2    1  ****        0.000000
    530  C          3.7694   11.4953   93.7070  C.2    1  ****        0.000000
    531  C          6.0511    9.5843   93.5287  C.2    1  ****        0.000000
    532  C          5.6569   10.1955   94.8736  C.2    1  ****        0.000000
    533  C          5.6204    9.1957   96.0283  C.2    1  ****        0.000000
    534  C          5.6980    9.9401   97.3539  C.2    1  ****        0.000000
    535  C          6.7445    7.8300   98.3238  C.2    1  ****        0.000000
    536  C          0.0162   -2.1575   70.5777  C.2    1  ****        0.000000
    537  C         -0.9951   -1.8521   71.6774  C.2    1  ****        0.000000
    538  C         -0.4010   -1.8256   73.0841  C.2    1  ****        0.000000
    539  C         -2.8924   -0.3213   72.3825  C.2    1  ****        0.000000
    540  C         -2.2274   -0.1690   73.7362  C.2    1  ****        0.000000
    541  C         -3.3131    0.1454   74.7618  C.2    1  ****        0.000000
    542  C         -2.7749    0.2098   76.1822  C.2    1  ****        0.000000
    543  C         -4.7565    2.1490   75.4549  C.2    1  ****        0.000000
    544  C         -4.1914    1.9871   76.8627  C.2    1  ****        0.000000
    545  C         -5.0792    2.6958   77.8736  C.2    1  ****        0.000000
    546  C         -4.5373    2.4752   79.2821  C.2    1  ****        0.000000
    547  C         -5.9105    5.0100   78.4928  C.2    1  ****        0.000000
    548  C         -5.8759    4.5686   79.9530  C.2    1  ****        0.000000
    549  C         -5.3116    5.5209   80.9943  C.2    1  ****        0.000000
    550  C         -5.9377    5.2389   82.3571  C.2    1  ****        0.000000
    551  C         -4.6055    7.7318   81.7060  C.2    1  ****        0.000000
    552  C         -5.3143    7.5850   83.0450  C.2    1  ****        0.000000
    553  C         -4.6983    8.4826   84.1084  C.2    1  ****        0.000000
    554  C         -4.5267    7.7716   85.4423  C.2    1  ****        0.000000
    555  C         -2.8473   10.0600   84.7655  C.2    1  ****        0.000000
    556  C         -2.9009    9.4742   86.1659  C.2    1  ****        0.000000
    557  C         -2.5295   10.5895   87.1349  C.2    1  ****        0.000000
    558  C         -2.6733   10.1471   88.5793  C.2    1  ****        0.000000
    559  C         -0.5303   11.9871   87.8368  C.2    1  ****        0.000000
    560  C         -1.1275   12.0478   89.2379  C.2    1  ****        0.000000
    561  C         -0.1961   11.7816   90.4078  C.2    1  ****        0.000000
    562  C         -0.7591   12.4472   91.6605  C.2    1  ****        0.000000
    563  C          1.9991   11.5189   91.3921  C.2    1  ****        0.000000
    564  C          1.6048   12.2859   92.6523  C.2    1  ****        0.000000
    565  C          2.2613   11.6563   93.8745  C.2    1  ****        0.000000
    566  C          1.8720   12.4136   95.1436  C.2    1  ****        0.000000
    567  C          4.2257   10.7115   94.9266  C.2    1  ****        0.000000
    568  C          3.9928   11.5065   96.2073  C.2    1  ****        0.000000
    569  C          4.4016   10.7379   97.4616  C.2    1  ****        0.000000
    570  C          4.3413   11.6704   98.6639  C.2    1  ****        0.000000
    571  C          5.7682    8.9798   98.5368  C.2    1  ****        0.000000
    572  C          4.1228   -0.6290   71.0748  C.2    1  ****        0.000000
    573  C          1.3443   -1.4254   70.7164  C.2    1  ****        0.000000
    574  C          1.9344   -1.5075   72.1172  C.2    1  ****        0.000000
    575  C          0.9297   -1.1000   73.1941  C.2    1  ****        0.000000
    576  C          1.6002   -1.2767   74.5588  C.2    1  ****        0.000000
    577  C         -1.3913   -1.3692   74.1506  C.2    1  ****        0.000000
    578  C         -0.7531   -0.8717   75.4415  C.2    1  ****        0.000000
    579  C         -1.8209   -0.9188   76.5312  C.2    1  ****        0.000000
    580  C         -1.3053   -0.7889   77.9547  C.2    1  ****        0.000000
    581  C         -3.9261    0.5103   77.1333  C.2    1  ****        0.000000
    582  C         -3.6038    0.1768   78.5817  C.2    1  ****        0.000000
    583  C         -4.4249    0.9815   79.5882  C.2    1  ****        0.000000
    584  C         -4.0360    0.6827   81.0342  C.2    1  ****        0.000000
    585  C         -5.4967    3.1246   80.2750  C.2    1  ****        0.000000
    586  C         -4.9633    2.9768   81.7027  C.2    1  ****        0.000000
    587  C         -5.8621    3.7490   82.6668  C.2    1  ****        0.000000
    588  C         -5.8924    3.3200   84.1281  C.2    1  ****        0.000000
    589  C         -5.3239    6.1111   83.4469  C.2    1  ****        0.000000
    590  C         -6.0545    5.8467   84.7608  C.2    1  ****        0.000000
    591  C         -5.6928    6.8691   85.8363  C.2    1  ****        0.000000
    592  C         -5.3138    6.2568   87.1805  C.2    1  ****        0.000000
    593  C         -4.2576    8.8592   86.4763  C.2    1  ****        0.000000
    594  C         -4.1504    8.2989   87.8841  C.2    1  ****        0.000000
    595  C         -4.0093    9.4647   88.8552  C.2    1  ****        0.000000
    596  C         -3.9636    8.9660   90.2923  C.2    1  ****        0.000000
    597  C         -2.4700   11.3544   89.4835  C.2    1  ****        0.000000
    598  C         -2.5576   10.8699   90.9289  C.2    1  ****        0.000000
    599  C         -2.1937   11.9674   91.9174  C.2    1  ****        0.000000
    600  C         -2.2887   11.4493   93.3467  C.2    1  ****        0.000000
    601  C          0.1065   12.1371   92.8757  C.2    1  ****        0.000000
    602  C         -0.3981   12.8312   94.1395  C.2    1  ****        0.000000
    603  C          0.3620   12.3348   95.3618  C.2    1  ****        0.000000
    604  C         -0.0786   13.1306   96.5865  C.2    1  ****        0.000000
    605  C          2.5060   11.7925   96.3810  C.2    1  ****        0.000000
    606  C          2.2502   12.6845   97.5928  C.2    1  ****        0.000000
    607  C          2.8950   12.1163   98.8584  C.2    1  ****        0.000000
    608  C          5.0349    0.5971   71.0445  C.2    1  ****        0.000000
    609  C          4.8071    1.4279   72.3055  C.2    1  ****        0.000000
    610  C          3.0838   -0.5106   72.1840  C.2    1  ****        0.000000
    611  C          3.7348   -0.4390   73.5685  C.2    1  ****        0.000000
    612  C          2.6860   -0.2075   74.6547  C.2    1  ****        0.000000
    613  C          3.3671   -0.1503   76.0144  C.2    1  ****        0.000000
    614  C          0.6368   -1.3902   75.7395  C.2    1  ****        0.000000
    615  C          1.1705   -0.9773   77.1042  C.2    1  ****        0.000000
    616  C          0.1410   -0.3311   78.0269  C.2    1  ****        0.000000
    617  C          0.6599   -0.4224   79.4555  C.2    1  ****        0.000000
    618  C         -2.1040    0.1864   78.8285  C.2    1  ****        0.000000
    619  C         -1.7538   -0.1078   80.2806  C.2    1  ****        0.000000
    620  C         -2.5314    0.7657   81.2614  C.2    1  ****        0.000000
    621  C         -2.1579    0.3058   82.6697  C.2    1  ****        0.000000
    622  C         -4.8310    1.5001   82.0516  C.2    1  ****        0.000000
    623  C         -4.4037    1.2428   83.4900  C.2    1  ****        0.000000
    624  C         -4.7731    2.3532   84.4569  C.2    1  ****        0.000000
    625  C         -4.7176    1.8319   85.8837  C.2    1  ****        0.000000
    626  C         -5.7186    4.4232   85.1688  C.2    1  ****        0.000000
    627  C         -6.1268    3.9397   86.5572  C.2    1  ****        0.000000
    628  C         -6.1279    5.0447   87.6125  C.2    1  ****        0.000000
    629  C         -5.5436    4.6013   88.9556  C.2    1  ****        0.000000
    630  C         -5.3052    7.3688   88.2273  C.2    1  ****        0.000000
    631  C         -5.0185    6.8551   89.6314  C.2    1  ****        0.000000
    632  C         -5.0997    8.0067   90.6259  C.2    1  ****        0.000000
    633  C         -4.8527    7.4919   92.0370  C.2    1  ****        0.000000
    634  C         -3.8556   10.1404   91.2588  C.2    1  ****        0.000000
    635  C         -3.7526    9.6001   92.6808  C.2    1  ****        0.000000
    636  C         -3.5716   10.7193   93.7012  C.2    1  ****        0.000000
    637  C         -3.3467   10.0524   95.0526  C.2    1  ****        0.000000
    638  C         -1.8908   12.5578   94.3048  C.2    1  ****        0.000000
    639  C         -2.3854   12.3640   95.7272  C.2    1  ****        0.000000
    640  C         -1.5905   13.0633   96.8239  C.2    1  ****        0.000000
    641  C         -1.9968   12.5633   98.2106  C.2    1  ****        0.000000
    642  C          0.7499   12.8372   97.8343  C.2    1  ****        0.000000
    643  C          5.6391    2.7411   69.8337  C.2    1  ****        0.000000
    644  C          5.1285    3.4628   71.0714  C.2    1  ****        0.000000
    645  C          5.5705    2.7407   72.3369  C.2    1  ****        0.000000
    646  C          5.0911    3.4545   73.5932  C.2    1  ****        0.000000
    647  C          4.8607    0.5944   73.5750  C.2    1  ****        0.000000
    648  C          5.1900    1.2994   74.8873  C.2    1  ****        0.000000
    649  C          4.2196    1.1147   76.0406  C.2    1  ****        0.000000
    650  C          4.8848    1.4242   77.3841  C.2    1  ****        0.000000
    651  C          2.3044    0.0408   77.0857  C.2    1  ****        0.000000
    652  C          2.9600    0.1739   78.4581  C.2    1  ****        0.000000
    653  C          1.9219    0.4182   79.5416  C.2    1  ****        0.000000
    654  C          2.5707    0.3778   80.9165  C.2    1  ****        0.000000
    655  C         -0.2824    0.2324   80.4573  C.2    1  ****        0.000000
    656  C          0.2345   -0.0544   81.8588  C.2    1  ****        0.000000
    657  C         -0.6724    0.5595   82.9125  C.2    1  ****        0.000000
    658  C         -0.2230    0.0917   84.2911  C.2    1  ****        0.000000
    659  C         -2.8997    1.1283   83.7098  C.2    1  ****        0.000000
    660  C         -2.5684    0.6652   85.1310  C.2    1  ****        0.000000
    661  C         -3.2422    1.5679   86.1610  C.2    1  ****        0.000000
    662  C         -2.9383    1.1646   87.6010  C.2    1  ****        0.000000
    663  C         -5.1352    2.8513   86.9279  C.2    1  ****        0.000000
    664  C         -5.1293    2.2513   88.3259  C.2    1  ****        0.000000
    665  C         -5.8326    3.1583   89.3356  C.2    1  ****        0.000000
    666  C         -5.4879    2.8111   90.7878  C.2    1  ****        0.000000
    667  C         -5.8626    5.6470   90.0128  C.2    1  ****        0.000000
    668  C         -5.4364    5.2022   91.4070  C.2    1  ****        0.000000
    669  C         -5.7649    6.3197   92.3886  C.2    1  ****        0.000000
    670  C         -5.4709    5.9017   93.8218  C.2    1  ****        0.000000
    671  C         -4.8916    8.6484   93.0312  C.2    1  ****        0.000000
    672  C         -4.6919    8.1006   94.4409  C.2    1  ****        0.000000
    673  C         -4.5616    9.2238   95.4595  C.2    1  ****        0.000000
    674  C         -4.3947    8.6242   96.8523  C.2    1  ****        0.000000
    675  C         -2.8190   10.9672   96.1451  C.2    1  ****        0.000000
    676  C         -3.8167   11.0546   97.2912  C.2    1  ****        0.000000
    677  C         -3.4581   12.1293   98.3104  C.2    1  ****        0.000000
    678  C          5.6459    2.7596   74.8270  C.2    1  ****        0.000000
    679  C          5.2205    3.5159   76.0889  C.2    1  ****        0.000000
    680  C          5.6324    2.7629   77.3418  C.2    1  ****        0.000000
    681  C          5.7565    3.5736   78.6351  C.2    1  ****        0.000000
    682  C          3.8142    1.4357   78.4617  C.2    1  ****        0.000000
    683  C          4.4639    1.7359   79.8040  C.2    1  ****        0.000000
    684  C          3.5038    1.5715   80.9704  C.2    1  ****        0.000000
    685  C          4.2198    1.8044   82.2900  C.2    1  ****        0.000000
    686  C          1.5520    0.6918   82.0032  C.2    1  ****        0.000000
    687  C          2.2122    0.4881   83.3515  C.2    1  ****        0.000000
    688  C          1.2664    0.3382   84.5374  C.2    1  ****        0.000000
    689  C          1.4795    1.2621   85.7236  C.2    1  ****        0.000000
    690  C         -1.0655    0.7821   85.3626  C.2    1  ****        0.000000
    691  C         -0.6524    0.4342   86.7931  C.2    1  ****        0.000000
    692  C         -1.4279    1.2920   87.7900  C.2    1  ****        0.000000
    693  C         -0.9966    0.9830   89.2183  C.2    1  ****        0.000000
    694  C         -3.6355    2.0911   88.6006  C.2    1  ****        0.000000
    695  C         -3.3239    1.6825   90.0314  C.2    1  ****        0.000000
    696  C         -3.9833    2.6609   90.9996  C.2    1  ****        0.000000
    697  C         -3.6745    2.2079   92.4209  C.2    1  ****        0.000000
    698  C         -6.0441    3.8526   91.7681  C.2    1  ****        0.000000
    699  C         -5.7702    3.4727   93.2280  C.2    1  ****        0.000000
    700  C         -6.1293    4.5872   94.2182  C.2    1  ****        0.000000
    701  C         -5.7722    4.2421   95.6664  C.2    1  ****        0.000000
    702  C         -5.7890    7.0850   94.7325  C.2    1  ****        0.000000
    703  C         -5.9086    6.6930   96.1958  C.2    1  ****        0.000000
    704  C         -5.6549    7.8285   97.1818  C.2    1  ****        0.000000
    705  C         -5.7040    7.3823   98.6382  C.2    1  ****        0.000000
    706  C         -4.0833    9.6858   97.9097  C.2    1  ****        0.000000
    707  C         -2.9200    9.2415   98.7933  C.2    1  ****        0.000000
    708  C          4.7865    3.2227   79.7522  C.2    1  ****        0.000000
    709  C          5.3324    3.7493   81.0736  C.2    1  ****        0.000000
    710  C          4.5224    3.2989   82.2894  C.2    1  ****        0.000000
    711  C          5.2047    3.8082   83.5511  C.2    1  ****        0.000000
    712  C          3.4638    1.3437   83.5342  C.2    1  ****        0.000000
    713  C          3.3444    2.3998   84.6203  C.2    1  ****        0.000000
    714  C          2.9300    1.6715   85.8970  C.2    1  ****        0.000000
    715  C          2.9478    2.5681   87.1230  C.2    1  ****        0.000000
    716  C          0.8574    0.6000   86.9446  C.2    1  ****        0.000000
    717  C          1.4136    0.9350   88.3193  C.2    1  ****        0.000000
    718  C          0.4409    1.4629   89.3625  C.2    1  ****        0.000000
    719  C          1.0028    1.2419   90.7654  C.2    1  ****        0.000000
    720  C         -1.8135    1.7876   90.2267  C.2    1  ****        0.000000
    721  C         -1.3782    1.4517   91.6501  C.2    1  ****        0.000000
    722  C         -2.1688    2.2797   92.6557  C.2    1  ****        0.000000
    723  C         -1.7618    1.9073   94.0805  C.2    1  ****        0.000000
    724  C         -4.3083    3.1248   93.4552  C.2    1  ****        0.000000
    725  C         -4.0583    2.4874   94.8134  C.2    1  ****        0.000000
    726  C         -5.0127    2.9447   95.8991  C.2    1  ****        0.000000
    727  C         -4.5150    2.7384   97.3242  C.2    1  ****        0.000000
    728  C         -5.1948    5.3846   96.4983  C.2    1  ****        0.000000
    729  C         -5.1839    5.0553   97.9890  C.2    1  ****        0.000000
    730  C         -6.1242    5.9279   98.8100  C.2    1  ****        0.000000
    731  C          5.2539    5.2687   81.0245  C.2    1  ****        0.000000
    732  C          5.1578    5.3345   83.5428  C.2    1  ****        0.000000
    733  C          5.8072    5.9781   84.7616  C.2    1  ****        0.000000
    734  C          4.6422    3.1784   84.8176  C.2    1  ****        0.000000
    735  C          4.4081    4.1866   85.9314  C.2    1  ****        0.000000
    736  C          4.2330    3.3814   87.2164  C.2    1  ****        0.000000
    737  C          4.0972    4.2801   88.4346  C.2    1  ****        0.000000
    738  C          2.7278    1.7119   88.3667  C.2    1  ****        0.000000
    739  C          2.7586    2.5990   89.6080  C.2    1  ****        0.000000
    740  C          2.4081    1.8410   90.8851  C.2    1  ****        0.000000
    741  C          2.4831    2.7718   92.0929  C.2    1  ****        0.000000
    742  C          0.0847    1.8446   91.8230  C.2    1  ****        0.000000
    743  C          0.6053    1.5867   93.2358  C.2    1  ****        0.000000
    744  C         -0.2920    2.2564   94.2731  C.2    1  ****        0.000000
    745  C          0.1941    1.9769   95.6931  C.2    1  ****        0.000000
    746  C         -2.5788    2.6866   95.1083  C.2    1  ****        0.000000
    747  C         -2.1727    2.2867   96.5218  C.2    1  ****        0.000000
    748  C         -3.0333    3.0584   97.5145  C.2    1  ****        0.000000
    749  C         -2.6035    2.7439   98.9458  C.2    1  ****        0.000000
    750  C         -5.3564    3.5699   98.2889  C.2    1  ****        0.000000
    751  C         -4.9560    3.2606   99.7278  C.2    1  ****        0.000000
    752  C          5.5060    5.2370   86.0584  C.2    1  ****        0.000000
    753  C          5.0870    6.1586   87.1955  C.2    1  ****        0.000000
    754  C          5.1775    5.3515   88.4858  C.2    1  ****        0.000000
    755  C          4.8867    6.2063   89.7092  C.2    1  ****        0.000000
    756  C          4.0377    3.4217   89.6946  C.2    1  ****        0.000000
    757  C          3.9455    4.3187   90.9205  C.2    1  ****        0.000000
    758  C          3.8202    3.4939   92.1957  C.2    1  ****        0.000000
    759  C          3.7801    4.4276   93.4005  C.2    1  ****        0.000000
    760  C          2.0448    2.0885   93.3833  C.2    1  ****        0.000000
    761  C          2.1606    3.0481   94.5664  C.2    1  ****        0.000000
    762  C          1.6519    2.4127   95.8545  C.2    1  ****        0.000000
    763  C          1.8228    3.3630   97.0371  C.2    1  ****        0.000000
    764  C         -0.7043    2.6571   96.7236  C.2    1  ****        0.000000
    765  C         -0.2181    2.3899   98.1474  C.2    1  ****        0.000000
    766  C         -1.1279    3.0741   99.1655  C.2    1  ****        0.000000
    767  C         -3.4670    3.5200   99.9398  C.2    1  ****        0.000000
    768  C          5.0683    5.3468   90.9522  C.2    1  ****        0.000000
    769  C          4.8811    6.2025   92.1928  C.2    1  ****        0.000000
    770  C          5.0017    5.3336   93.4384  C.2    1  ****        0.000000
    771  C          4.9707    6.2055   94.6879  C.2    1  ****        0.000000
    772  C          3.5548    3.6531   94.6901  C.2    1  ****        0.000000
    773  C          3.6022    4.6068   95.8824  C.2    1  ****        0.000000
    774  C          3.2729    3.8286   97.1468  C.2    1  ****        0.000000
    775  C          3.4451    4.7201   98.3683  C.2    1  ****        0.000000
    776  C          1.2760    2.7077   98.3016  C.2    1  ****        0.000000
    777  C          1.6607    3.4545   99.5771  C.2    1  ****        0.000000
    778  C          6.0946    7.2246   94.5806  C.2    1  ****        0.000000
    779  C          4.9307    5.3588   95.9494  C.2    1  ****        0.000000
    780  C          5.0416    6.2480   97.1915  C.2    1  ****        0.000000
    781  C          4.8404    5.3479   98.4182  C.2    1  ****        0.000000
    782  C          4.9934    6.0280   99.7743  C.2    1  ****        0.000000
    783  C          3.1231    3.8919   99.6077  C.2    1  ****        0.000000
    784  C          6.3702    7.0094   97.0958  C.2    1  ****        0.000000
    785  H          6.4555    2.1797   39.8399    H    1  ****        0.000000
    786  H          4.7093    3.7071   38.8903    H    1  ****        0.000000
    787  H          0.0734    3.7691   38.9775    H    1  ****        0.000000
    788  H          2.7647    5.2624   39.0436    H    1  ****        0.000000
    789  H         -1.6061    6.3520   39.1776    H    1  ****        0.000000
    790  H         -3.9665    4.1787   38.9223    H    1  ****        0.000000
    791  H         -6.1233    0.5977   38.8054    H    1  ****        0.000000
    792  H         -4.3727    0.9262   39.2362    H    1  ****        0.000000
    793  H         -6.1208    4.6050   40.1964    H    1  ****        0.000000
    794  H         -5.3365   -1.5501   39.2794    H    1  ****        0.000000
    795  H         -2.7871   -5.2384   40.4035    H    1  ****        0.000000
    796  H         -4.8868   -3.9038   39.9520    H    1  ****        0.000000
    797  H         -0.0939   -3.8408   39.9799    H    1  ****        0.000000
    798  H          3.9472   -4.2946   40.0244    H    1  ****        0.000000
    799  H          1.5700   -6.3026   40.8189    H    1  ****        0.000000
    800  H          6.0961   -4.3861   41.3743    H    1  ****        0.000000
    801  H          6.2561   -1.7647   39.5138    H    1  ****        0.000000
    802  H          4.4671   -1.3410   39.6030    H    1  ****        0.000000
    803  H          7.7927    8.1969   98.2417    H    1  ****        0.000000
    804  H          5.0211   12.5408   98.5178    H    1  ****        0.000000
    805  H          6.0087    9.5260   99.4764    H    1  ****        0.000000
    806  H          2.8190   12.8368   99.7039    H    1  ****        0.000000
    807  H         -1.7837   13.3361   98.9835    H    1  ****        0.000000
    808  H          0.5949   13.6530   98.5770    H    1  ****        0.000000
    809  H         -4.1355   13.0021   98.1656    H    1  ****        0.000000
    810  H         -6.3490    8.0656   99.2341    H    1  ****        0.000000
    811  H         -3.1749    8.3216   99.3649    H    1  ****        0.000000
    812  H         -1.9973    9.0580   98.1978    H    1  ****        0.000000
    813  H         -7.1845    5.7657   98.5099    H    1  ****        0.000000
    814  H         -5.2183    2.2058   99.9724    H    1  ****        0.000000
    815  H         -0.8573    2.7313  100.1900    H    1  ****        0.000000
    816  H         -3.1862    3.2798  100.9902    H    1  ****        0.000000
    817  H          1.4562    2.8242  100.4724    H    1  ****        0.000000
    818  H          6.0561    6.1567  100.0737    H    1  ****        0.000000
    819  H          4.4262    6.9823   99.8474    H    1  ****        0.000000
    820  H          3.8071    3.0153   99.6830    H    1  ****        0.000000
@<TRIPOS>BOND
    1     1     2  1
    2     1     4  1
    3     1   785  1
    4     2     3  1
    5     2   786  1
    6     3    10  1
    7     3    12  1
    8     4     5  1
    9     4   252  1
   10     5     6  1
   11     5    12  1
   12     6     7  1
   13     6   254  1
   14     7    14  1
   15     7    16  1
   16     8    20  1
   17     8    22  1
   18     8   787  1
   19     9    10  1
   20     9    22  1
   21     9   788  1
   22    10    11  1
   23    11    24  1
   24    11    26  1
   25    12    13  1
   26    13    14  1
   27    13    26  1
   28    14    15  1
   29    15    28  1
   30    15    30  1
   31    16    17  1
   32    16   287  1
   33    17    18  1
   34    17    30  1
   35    18    19  1
   36    18   289  1
   37    19    32  1
   38    19   339  1
   39    20    21  1
   40    20   789  1
   41    21    36  1
   42    21    38  1
   43    22    23  1
   44    23    24  1
   45    23    38  1
   46    24    25  1
   47    25    40  1
   48    25    42  1
   49    26    27  1
   50    27    28  1
   51    27    42  1
   52    28    29  1
   53    29    44  1
   54    29    46  1
   55    30    31  1
   56    31    32  1
   57    31    46  1
   58    32    33  1
   59    33    48  1
   60    33    50  1
   61    34    50  1
   62    34   339  1
   63    34   340  1
   64    35    36  1
   65    35    56  1
   66    35   790  1
   67    36    37  1
   68    37    58  1
   69    37    60  1
   70    38    39  1
   71    39    40  1
   72    39    60  1
   73    40    41  1
   74    41    62  1
   75    41    64  1
   76    42    43  1
   77    43    44  1
   78    43    64  1
   79    44    45  1
   80    45    66  1
   81    45    68  1
   82    46    47  1
   83    47    48  1
   84    47    68  1
   85    48    49  1
   86    49    70  1
   87    49    72  1
   88    50    51  1
   89    51    52  1
   90    51    72  1
   91    52    53  1
   92    52   341  1
   93    53    74  1
   94    53    76  1
   95    54    55  1
   96    54   791  1
   97    54   792  1
   98    55    81  1
   99    55    83  1
  100    56    57  1
  101    56   793  1
  102    57    58  1
  103    57    83  1
  104    58    59  1
  105    59    85  1
  106    59    87  1
  107    60    61  1
  108    61    62  1
  109    61    87  1
  110    62    63  1
  111    63    89  1
  112    63    91  1
  113    64    65  1
  114    65    66  1
  115    65    91  1
  116    66    67  1
  117    67    93  1
  118    67    95  1
  119    68    69  1
  120    69    70  1
  121    69    95  1
  122    70    71  1
  123    71    97  1
  124    71    99  1
  125    72    73  1
  126    73    74  1
  127    73    99  1
  128    74    75  1
  129    75   101  1
  130    75   103  1
  131    76    77  1
  132    76   361  1
  133    77    78  1
  134    77   103  1
  135    78    79  1
  136    78   363  1
  137    79   105  1
  138    79   107  1
  139    80    81  1
  140    80   111  1
  141    80   794  1
  142    81    82  1
  143    82   113  1
  144    82   115  1
  145    83    84  1
  146    84    85  1
  147    84   115  1
  148    85    86  1
  149    86   117  1
  150    86   119  1
  151    87    88  1
  152    88    89  1
  153    88   119  1
  154    89    90  1
  155    90   121  1
  156    90   123  1
  157    91    92  1
  158    92    93  1
  159    92   123  1
  160    93    94  1
  161    94   125  1
  162    94   127  1
  163    95    96  1
  164    96    97  1
  165    96   127  1
  166    97    98  1
  167    98   129  1
  168    98   131  1
  169    99   100  1
  170   100   101  1
  171   100   131  1
  172   101   102  1
  173   102   133  1
  174   102   135  1
  175   103   104  1
  176   104   105  1
  177   104   135  1
  178   105   106  1
  179   106   137  1
  180   106   139  1
  181   107   108  1
  182   107   377  1
  183   108   139  1
  184   108   386  1
  185   109   141  1
  186   109   386  1
  187   109   392  1
  188   110   145  1
  189   110   147  1
  190   110   795  1
  191   111   112  1
  192   111   796  1
  193   112   113  1
  194   112   147  1
  195   113   114  1
  196   114   149  1
  197   114   151  1
  198   115   116  1
  199   116   117  1
  200   116   151  1
  201   117   118  1
  202   118   153  1
  203   118   155  1
  204   119   120  1
  205   120   121  1
  206   120   155  1
  207   121   122  1
  208   122   157  1
  209   122   159  1
  210   123   124  1
  211   124   125  1
  212   124   159  1
  213   125   126  1
  214   126   161  1
  215   126   163  1
  216   127   128  1
  217   128   129  1
  218   128   163  1
  219   129   130  1
  220   130   165  1
  221   130   167  1
  222   131   132  1
  223   132   133  1
  224   132   167  1
  225   133   134  1
  226   134   169  1
  227   134   171  1
  228   135   136  1
  229   136   137  1
  230   136   171  1
  231   137   138  1
  232   138   173  1
  233   138   175  1
  234   139   140  1
  235   140   141  1
  236   140   175  1
  237   141   142  1
  238   142   177  1
  239   142   179  1
  240   143   179  1
  241   143   392  1
  242   143   643  1
  243   144   145  1
  244   144   181  1
  245   144   797  1
  246   145   146  1
  247   146   183  1
  248   146   185  1
  249   147   148  1
  250   148   149  1
  251   148   185  1
  252   149   150  1
  253   150   187  1
  254   150   189  1
  255   151   152  1
  256   152   153  1
  257   152   189  1
  258   153   154  1
  259   154   191  1
  260   154   193  1
  261   155   156  1
  262   156   157  1
  263   156   193  1
  264   157   158  1
  265   158   195  1
  266   158   197  1
  267   159   160  1
  268   160   161  1
  269   160   197  1
  270   161   162  1
  271   162   199  1
  272   162   201  1
  273   163   164  1
  274   164   165  1
  275   164   201  1
  276   165   166  1
  277   166   203  1
  278   166   205  1
  279   167   168  1
  280   168   169  1
  281   168   205  1
  282   169   170  1
  283   170   207  1
  284   170   209  1
  285   171   172  1
  286   172   173  1
  287   172   209  1
  288   173   174  1
  289   174   211  1
  290   174   213  1
  291   175   176  1
  292   176   177  1
  293   176   213  1
  294   177   178  1
  295   178   215  1
  296   178   394  1
  297   179   393  1
  298   180   216  1
  299   180   218  1
  300   180   798  1
  301   181   182  1
  302   181   799  1
  303   182   183  1
  304   182   218  1
  305   183   184  1
  306   184   220  1
  307   184   222  1
  308   185   186  1
  309   186   187  1
  310   186   222  1
  311   187   188  1
  312   188   224  1
  313   188   226  1
  314   189   190  1
  315   190   191  1
  316   190   226  1
  317   191   192  1
  318   192   228  1
  319   192   230  1
  320   193   194  1
  321   194   195  1
  322   194   230  1
  323   195   196  1
  324   196   232  1
  325   196   234  1
  326   197   198  1
  327   198   199  1
  328   198   234  1
  329   199   200  1
  330   200   236  1
  331   200   238  1
  332   201   202  1
  333   202   203  1
  334   202   238  1
  335   203   204  1
  336   204   240  1
  337   204   242  1
  338   205   206  1
  339   206   207  1
  340   206   242  1
  341   207   208  1
  342   208   244  1
  343   208   246  1
  344   209   210  1
  345   210   211  1
  346   210   246  1
  347   211   212  1
  348   212   248  1
  349   212   250  1
  350   213   214  1
  351   214   215  1
  352   214   250  1
  353   215   401  1
  354   216   217  1
  355   216   800  1
  356   217   253  1
  357   217   255  1
  358   218   219  1
  359   219   220  1
  360   219   255  1
  361   220   221  1
  362   221   257  1
  363   221   259  1
  364   222   223  1
  365   223   224  1
  366   223   259  1
  367   224   225  1
  368   225   261  1
  369   225   263  1
  370   226   227  1
  371   227   228  1
  372   227   263  1
  373   228   229  1
  374   229   265  1
  375   229   267  1
  376   230   231  1
  377   231   232  1
  378   231   267  1
  379   232   233  1
  380   233   269  1
  381   233   271  1
  382   234   235  1
  383   235   236  1
  384   235   271  1
  385   236   237  1
  386   237   273  1
  387   237   275  1
  388   238   239  1
  389   239   240  1
  390   239   275  1
  391   240   241  1
  392   241   277  1
  393   241   279  1
  394   242   243  1
  395   243   244  1
  396   243   279  1
  397   244   245  1
  398   245   281  1
  399   245   283  1
  400   246   247  1
  401   247   248  1
  402   247   283  1
  403   248   249  1
  404   249   285  1
  405   249   412  1
  406   250   400  1
  407   251   252  1
  408   251   801  1
  409   251   802  1
  410   252   253  1
  411   253   254  1
  412   254   286  1
  413   255   256  1
  414   256   257  1
  415   256   286  1
  416   257   258  1
  417   258   288  1
  418   258   290  1
  419   259   260  1
  420   260   261  1
  421   260   290  1
  422   261   262  1
  423   262   292  1
  424   262   294  1
  425   263   264  1
  426   264   265  1
  427   264   294  1
  428   265   266  1
  429   266   296  1
  430   266   298  1
  431   267   268  1
  432   268   269  1
  433   268   298  1
  434   269   270  1
  435   270   300  1
  436   270   302  1
  437   271   272  1
  438   272   273  1
  439   272   302  1
  440   273   274  1
  441   274   304  1
  442   274   306  1
  443   275   276  1
  444   276   277  1
  445   276   306  1
  446   277   278  1
  447   278   308  1
  448   278   310  1
  449   279   280  1
  450   280   281  1
  451   280   310  1
  452   281   282  1
  453   282   312  1
  454   282   314  1
  455   283   284  1
  456   284   285  1
  457   284   314  1
  458   285   427  1
  459   286   287  1
  460   287   288  1
  461   288   289  1
  462   289   316  1
  463   290   291  1
  464   291   292  1
  465   291   316  1
  466   292   293  1
  467   293   318  1
  468   293   320  1
  469   294   295  1
  470   295   296  1
  471   295   320  1
  472   296   297  1
  473   297   322  1
  474   297   324  1
  475   298   299  1
  476   299   300  1
  477   299   324  1
  478   300   301  1
  479   301   326  1
  480   301   328  1
  481   302   303  1
  482   303   304  1
  483   303   328  1
  484   304   305  1
  485   305   330  1
  486   305   332  1
  487   306   307  1
  488   307   308  1
  489   307   332  1
  490   308   309  1
  491   309   334  1
  492   309   336  1
  493   310   311  1
  494   311   312  1
  495   311   336  1
  496   312   313  1
  497   313   338  1
  498   313   446  1
  499   314   315  1
  500   315   446  1
  501   315   448  1
  502   316   317  1
  503   317   318  1
  504   317   339  1
  505   318   319  1
  506   319   340  1
  507   319   342  1
  508   320   321  1
  509   321   322  1
  510   321   342  1
  511   322   323  1
  512   323   344  1
  513   323   346  1
  514   324   325  1
  515   325   326  1
  516   325   346  1
  517   326   327  1
  518   327   348  1
  519   327   350  1
  520   328   329  1
  521   329   330  1
  522   329   350  1
  523   330   331  1
  524   331   352  1
  525   331   354  1
  526   332   333  1
  527   333   334  1
  528   333   354  1
  529   334   335  1
  530   335   356  1
  531   335   358  1
  532   336   337  1
  533   337   338  1
  534   337   358  1
  535   338   472  1
  536   340   341  1
  537   341   360  1
  538   342   343  1
  539   343   344  1
  540   343   360  1
  541   344   345  1
  542   345   362  1
  543   345   364  1
  544   346   347  1
  545   347   348  1
  546   347   364  1
  547   348   349  1
  548   349   366  1
  549   349   368  1
  550   350   351  1
  551   351   352  1
  552   351   368  1
  553   352   353  1
  554   353   370  1
  555   353   372  1
  556   354   355  1
  557   355   356  1
  558   355   372  1
  559   356   357  1
  560   357   374  1
  561   357   375  1
  562   358   359  1
  563   359   375  1
  564   359   503  1
  565   360   361  1
  566   361   362  1
  567   362   363  1
  568   363   376  1
  569   364   365  1
  570   365   366  1
  571   365   376  1
  572   366   367  1
  573   367   378  1
  574   367   380  1
  575   368   369  1
  576   369   370  1
  577   369   380  1
  578   370   371  1
  579   371   382  1
  580   371   384  1
  581   372   373  1
  582   373   374  1
  583   373   384  1
  584   374   536  1
  585   375   502  1
  586   376   377  1
  587   377   378  1
  588   378   379  1
  589   379   386  1
  590   379   387  1
  591   380   381  1
  592   381   382  1
  593   381   387  1
  594   382   383  1
  595   383   389  1
  596   383   391  1
  597   384   385  1
  598   385   391  1
  599   385   573  1
  600   387   388  1
  601   388   389  1
  602   388   392  1
  603   389   390  1
  604   390   608  1
  605   390   643  1
  606   391   572  1
  607   393   394  1
  608   393   396  1
  609   394   395  1
  610   395   402  1
  611   395   404  1
  612   396   397  1
  613   396   644  1
  614   397   398  1
  615   397   404  1
  616   398   399  1
  617   398   646  1
  618   399   406  1
  619   399   408  1
  620   400   412  1
  621   400   414  1
  622   401   402  1
  623   401   414  1
  624   402   403  1
  625   403   416  1
  626   403   418  1
  627   404   405  1
  628   405   406  1
  629   405   418  1
  630   406   407  1
  631   407   420  1
  632   407   422  1
  633   408   409  1
  634   408   679  1
  635   409   410  1
  636   409   422  1
  637   410   411  1
  638   410   681  1
  639   411   424  1
  640   411   731  1
  641   412   413  1
  642   413   428  1
  643   413   430  1
  644   414   415  1
  645   415   416  1
  646   415   430  1
  647   416   417  1
  648   417   432  1
  649   417   434  1
  650   418   419  1
  651   419   420  1
  652   419   434  1
  653   420   421  1
  654   421   436  1
  655   421   438  1
  656   422   423  1
  657   423   424  1
  658   423   438  1
  659   424   425  1
  660   425   440  1
  661   425   442  1
  662   426   442  1
  663   426   731  1
  664   426   732  1
  665   427   428  1
  666   427   448  1
  667   428   429  1
  668   429   450  1
  669   429   452  1
  670   430   431  1
  671   431   432  1
  672   431   452  1
  673   432   433  1
  674   433   454  1
  675   433   456  1
  676   434   435  1
  677   435   436  1
  678   435   456  1
  679   436   437  1
  680   437   458  1
  681   437   460  1
  682   438   439  1
  683   439   440  1
  684   439   460  1
  685   440   441  1
  686   441   462  1
  687   441   464  1
  688   442   443  1
  689   443   444  1
  690   443   464  1
  691   444   445  1
  692   444   733  1
  693   445   466  1
  694   445   468  1
  695   446   447  1
  696   447   473  1
  697   447   475  1
  698   448   449  1
  699   449   450  1
  700   449   475  1
  701   450   451  1
  702   451   477  1
  703   451   479  1
  704   452   453  1
  705   453   454  1
  706   453   479  1
  707   454   455  1
  708   455   481  1
  709   455   483  1
  710   456   457  1
  711   457   458  1
  712   457   483  1
  713   458   459  1
  714   459   485  1
  715   459   487  1
  716   460   461  1
  717   461   462  1
  718   461   487  1
  719   462   463  1
  720   463   489  1
  721   463   491  1
  722   464   465  1
  723   465   466  1
  724   465   491  1
  725   466   467  1
  726   467   493  1
  727   467   495  1
  728   468   469  1
  729   468   753  1
  730   469   470  1
  731   469   495  1
  732   470   471  1
  733   470   755  1
  734   471   497  1
  735   471   499  1
  736   472   473  1
  737   472   503  1
  738   473   474  1
  739   474   505  1
  740   474   507  1
  741   475   476  1
  742   476   477  1
  743   476   507  1
  744   477   478  1
  745   478   509  1
  746   478   511  1
  747   479   480  1
  748   480   481  1
  749   480   511  1
  750   481   482  1
  751   482   513  1
  752   482   515  1
  753   483   484  1
  754   484   485  1
  755   484   515  1
  756   485   486  1
  757   486   517  1
  758   486   519  1
  759   487   488  1
  760   488   489  1
  761   488   519  1
  762   489   490  1
  763   490   521  1
  764   490   523  1
  765   491   492  1
  766   492   493  1
  767   492   523  1
  768   493   494  1
  769   494   525  1
  770   494   527  1
  771   495   496  1
  772   496   497  1
  773   496   527  1
  774   497   498  1
  775   498   529  1
  776   498   531  1
  777   499   500  1
  778   499   769  1
  779   500   531  1
  780   500   778  1
  781   501   533  1
  782   501   778  1
  783   501   784  1
  784   502   537  1
  785   502   539  1
  786   503   504  1
  787   504   505  1
  788   504   539  1
  789   505   506  1
  790   506   541  1
  791   506   543  1
  792   507   508  1
  793   508   509  1
  794   508   543  1
  795   509   510  1
  796   510   545  1
  797   510   547  1
  798   511   512  1
  799   512   513  1
  800   512   547  1
  801   513   514  1
  802   514   549  1
  803   514   551  1
  804   515   516  1
  805   516   517  1
  806   516   551  1
  807   517   518  1
  808   518   553  1
  809   518   555  1
  810   519   520  1
  811   520   521  1
  812   520   555  1
  813   521   522  1
  814   522   557  1
  815   522   559  1
  816   523   524  1
  817   524   525  1
  818   524   559  1
  819   525   526  1
  820   526   561  1
  821   526   563  1
  822   527   528  1
  823   528   529  1
  824   528   563  1
  825   529   530  1
  826   530   565  1
  827   530   567  1
  828   531   532  1
  829   532   533  1
  830   532   567  1
  831   533   534  1
  832   534   569  1
  833   534   571  1
  834   535   571  1
  835   535   784  1
  836   535   803  1
  837   536   537  1
  838   536   573  1
  839   537   538  1
  840   538   575  1
  841   538   577  1
  842   539   540  1
  843   540   541  1
  844   540   577  1
  845   541   542  1
  846   542   579  1
  847   542   581  1
  848   543   544  1
  849   544   545  1
  850   544   581  1
  851   545   546  1
  852   546   583  1
  853   546   585  1
  854   547   548  1
  855   548   549  1
  856   548   585  1
  857   549   550  1
  858   550   587  1
  859   550   589  1
  860   551   552  1
  861   552   553  1
  862   552   589  1
  863   553   554  1
  864   554   591  1
  865   554   593  1
  866   555   556  1
  867   556   557  1
  868   556   593  1
  869   557   558  1
  870   558   595  1
  871   558   597  1
  872   559   560  1
  873   560   561  1
  874   560   597  1
  875   561   562  1
  876   562   599  1
  877   562   601  1
  878   563   564  1
  879   564   565  1
  880   564   601  1
  881   565   566  1
  882   566   603  1
  883   566   605  1
  884   567   568  1
  885   568   569  1
  886   568   605  1
  887   569   570  1
  888   570   607  1
  889   570   804  1
  890   571   805  1
  891   572   608  1
  892   572   610  1
  893   573   574  1
  894   574   575  1
  895   574   610  1
  896   575   576  1
  897   576   612  1
  898   576   614  1
  899   577   578  1
  900   578   579  1
  901   578   614  1
  902   579   580  1
  903   580   616  1
  904   580   618  1
  905   581   582  1
  906   582   583  1
  907   582   618  1
  908   583   584  1
  909   584   620  1
  910   584   622  1
  911   585   586  1
  912   586   587  1
  913   586   622  1
  914   587   588  1
  915   588   624  1
  916   588   626  1
  917   589   590  1
  918   590   591  1
  919   590   626  1
  920   591   592  1
  921   592   628  1
  922   592   630  1
  923   593   594  1
  924   594   595  1
  925   594   630  1
  926   595   596  1
  927   596   632  1
  928   596   634  1
  929   597   598  1
  930   598   599  1
  931   598   634  1
  932   599   600  1
  933   600   636  1
  934   600   638  1
  935   601   602  1
  936   602   603  1
  937   602   638  1
  938   603   604  1
  939   604   640  1
  940   604   642  1
  941   605   606  1
  942   606   607  1
  943   606   642  1
  944   607   806  1
  945   608   609  1
  946   609   645  1
  947   609   647  1
  948   610   611  1
  949   611   612  1
  950   611   647  1
  951   612   613  1
  952   613   649  1
  953   613   651  1
  954   614   615  1
  955   615   616  1
  956   615   651  1
  957   616   617  1
  958   617   653  1
  959   617   655  1
  960   618   619  1
  961   619   620  1
  962   619   655  1
  963   620   621  1
  964   621   657  1
  965   621   659  1
  966   622   623  1
  967   623   624  1
  968   623   659  1
  969   624   625  1
  970   625   661  1
  971   625   663  1
  972   626   627  1
  973   627   628  1
  974   627   663  1
  975   628   629  1
  976   629   665  1
  977   629   667  1
  978   630   631  1
  979   631   632  1
  980   631   667  1
  981   632   633  1
  982   633   669  1
  983   633   671  1
  984   634   635  1
  985   635   636  1
  986   635   671  1
  987   636   637  1
  988   637   673  1
  989   637   675  1
  990   638   639  1
  991   639   640  1
  992   639   675  1
  993   640   641  1
  994   641   677  1
  995   641   807  1
  996   642   808  1
  997   643   644  1
  998   644   645  1
  999   645   646  1
 1000   646   678  1
 1001   647   648  1
 1002   648   649  1
 1003   648   678  1
 1004   649   650  1
 1005   650   680  1
 1006   650   682  1
 1007   651   652  1
 1008   652   653  1
 1009   652   682  1
 1010   653   654  1
 1011   654   684  1
 1012   654   686  1
 1013   655   656  1
 1014   656   657  1
 1015   656   686  1
 1016   657   658  1
 1017   658   688  1
 1018   658   690  1
 1019   659   660  1
 1020   660   661  1
 1021   660   690  1
 1022   661   662  1
 1023   662   692  1
 1024   662   694  1
 1025   663   664  1
 1026   664   665  1
 1027   664   694  1
 1028   665   666  1
 1029   666   696  1
 1030   666   698  1
 1031   667   668  1
 1032   668   669  1
 1033   668   698  1
 1034   669   670  1
 1035   670   700  1
 1036   670   702  1
 1037   671   672  1
 1038   672   673  1
 1039   672   702  1
 1040   673   674  1
 1041   674   704  1
 1042   674   706  1
 1043   675   676  1
 1044   676   677  1
 1045   676   706  1
 1046   677   809  1
 1047   678   679  1
 1048   679   680  1
 1049   680   681  1
 1050   681   708  1
 1051   682   683  1
 1052   683   684  1
 1053   683   708  1
 1054   684   685  1
 1055   685   710  1
 1056   685   712  1
 1057   686   687  1
 1058   687   688  1
 1059   687   712  1
 1060   688   689  1
 1061   689   714  1
 1062   689   716  1
 1063   690   691  1
 1064   691   692  1
 1065   691   716  1
 1066   692   693  1
 1067   693   718  1
 1068   693   720  1
 1069   694   695  1
 1070   695   696  1
 1071   695   720  1
 1072   696   697  1
 1073   697   722  1
 1074   697   724  1
 1075   698   699  1
 1076   699   700  1
 1077   699   724  1
 1078   700   701  1
 1079   701   726  1
 1080   701   728  1
 1081   702   703  1
 1082   703   704  1
 1083   703   728  1
 1084   704   705  1
 1085   705   730  1
 1086   705   810  1
 1087   706   707  1
 1088   707   811  1
 1089   707   812  1
 1090   708   709  1
 1091   709   710  1
 1092   709   731  1
 1093   710   711  1
 1094   711   732  1
 1095   711   734  1
 1096   712   713  1
 1097   713   714  1
 1098   713   734  1
 1099   714   715  1
 1100   715   736  1
 1101   715   738  1
 1102   716   717  1
 1103   717   718  1
 1104   717   738  1
 1105   718   719  1
 1106   719   740  1
 1107   719   742  1
 1108   720   721  1
 1109   721   722  1
 1110   721   742  1
 1111   722   723  1
 1112   723   744  1
 1113   723   746  1
 1114   724   725  1
 1115   725   726  1
 1116   725   746  1
 1117   726   727  1
 1118   727   748  1
 1119   727   750  1
 1120   728   729  1
 1121   729   730  1
 1122   729   750  1
 1123   730   813  1
 1124   732   733  1
 1125   733   752  1
 1126   734   735  1
 1127   735   736  1
 1128   735   752  1
 1129   736   737  1
 1130   737   754  1
 1131   737   756  1
 1132   738   739  1
 1133   739   740  1
 1134   739   756  1
 1135   740   741  1
 1136   741   758  1
 1137   741   760  1
 1138   742   743  1
 1139   743   744  1
 1140   743   760  1
 1141   744   745  1
 1142   745   762  1
 1143   745   764  1
 1144   746   747  1
 1145   747   748  1
 1146   747   764  1
 1147   748   749  1
 1148   749   766  1
 1149   749   767  1
 1150   750   751  1
 1151   751   767  1
 1152   751   814  1
 1153   752   753  1
 1154   753   754  1
 1155   754   755  1
 1156   755   768  1
 1157   756   757  1
 1158   757   758  1
 1159   757   768  1
 1160   758   759  1
 1161   759   770  1
 1162   759   772  1
 1163   760   761  1
 1164   761   762  1
 1165   761   772  1
 1166   762   763  1
 1167   763   774  1
 1168   763   776  1
 1169   764   765  1
 1170   765   766  1
 1171   765   776  1
 1172   766   815  1
 1173   767   816  1
 1174   768   769  1
 1175   769   770  1
 1176   770   771  1
 1177   771   778  1
 1178   771   779  1
 1179   772   773  1
 1180   773   774  1
 1181   773   779  1
 1182   774   775  1
 1183   775   781  1
 1184   775   783  1
 1185   776   777  1
 1186   777   783  1
 1187   777   817  1
 1188   779   780  1
 1189   780   781  1
 1190   780   784  1
 1191   781   782  1
 1192   782   818  1
 1193   782   819  1
 1194   783   820  1

@<TRIPOS>SUBSTRUCTURE
1 ****        1 TEMP                        0 ****  **** 0 ROOT
