###
### Created by PolyChef-cpp17 on Sun Apr 20 20:39:29 2025
###

@<TRIPOS>MOLECULE
NO_INFO
974 973 1 0 0
SMALL
USER_CHARGES


@<TRIPOS>ATOM
      1 C          -0.7202    1.2287  -19.3449 C.3       0      M_A    0.0000
      2 C          -2.1294    1.0682  -18.7641 C.3       0      M_A    0.0000
      3 H          -0.0729    0.4166  -18.9913 H         0      M_A    0.0000
      4 H          -0.2720    2.1655  -18.9913 H         0      M_A    0.0000
      5 H          -2.6276    2.0442  -18.7104 H         0      M_A    0.0000
      6 H          -2.7391    0.4392  -19.4245 H         0      M_A    0.0000
      7 C          -2.1128    0.4300  -17.3324 C.3       1      M_A    0.0000
      8 C          -0.8365    0.7754  -16.5572 C.3       1      M_A    0.0000
      9 H          -2.9943    0.7780  -16.7798 H         1      M_A    0.0000
     10 H          -2.2111   -0.6584  -17.4292 H         1      M_A    0.0000
     11 H           0.0468    0.5520  -17.1683 H         1      M_A    0.0000
     12 H          -0.8067    1.8507  -16.3417 H         1      M_A    0.0000
     13 C          -0.7296   -0.0137  -15.2069 C.3       2      M_A    0.0000
     14 C           0.0898    0.7427  -14.1555 C.3       2      M_A    0.0000
     15 H          -1.7412   -0.2059  -14.8286 H         2      M_A    0.0000
     16 H          -0.2758   -0.9928  -15.4045 H         2      M_A    0.0000
     17 H           1.0608    1.0350  -14.5741 H         2      M_A    0.0000
     18 H          -0.4240    1.6703  -13.8740 H         2      M_A    0.0000
     19 C           0.3330   -0.1120  -12.8641 C.3       3      M_A    0.0000
     20 C           0.0877    0.6905  -11.5816 C.3       3      M_A    0.0000
     21 H          -0.3260   -0.9887  -12.8910 H         3      M_A    0.0000
     22 H           1.3624   -0.4910  -12.8795 H         3      M_A    0.0000
     23 H           0.9768    1.2830  -11.3327 H         3      M_A    0.0000
     24 H          -0.7327    1.4026  -11.7346 H         3      M_A    0.0000
     25 C          -0.2633   -0.2303  -10.3625 C.3       4      M_A    0.0000
     26 C           0.0527    0.4379   -9.0198 C.3       4      M_A    0.0000
     27 H          -1.3278   -0.4914  -10.4114 H         4      M_A    0.0000
     28 H           0.2960   -1.1695  -10.4561 H         4      M_A    0.0000
     29 H           0.8886    1.1388   -9.1360 H         4      M_A    0.0000
     30 H          -0.8082    1.0276   -8.6813 H         4      M_A    0.0000
     31 C           0.4188   -0.6054   -7.9086 C.3       5      M_A    0.0000
     32 C           0.1584   -0.0666   -6.4975 C.3       5      M_A    0.0000
     33 H          -0.1644   -1.5195   -8.0757 H         5      M_A    0.0000
     34 H           1.4750   -0.8814   -8.0169 H         5      M_A    0.0000
     35 H           0.5826    0.9399   -6.3951 H         5      M_A    0.0000
     36 H          -0.9207    0.0270   -6.3238 H         5      M_A    0.0000
     37 C           0.7708   -0.9884   -5.3872 C.3       6      M_A    0.0000
     38 C           0.4091   -0.5154   -3.9750 C.3       6      M_A    0.0000
     39 H           0.4145   -2.0142   -5.5431 H         6      M_A    0.0000
     40 H           1.8609   -1.0117   -5.5085 H         6      M_A    0.0000
     41 H           0.3515    0.5798   -3.9483 H         6      M_A    0.0000
     42 H          -0.5834   -0.8900   -3.6954 H         6      M_A    0.0000
     43 C           1.4495   -0.9928   -2.9039 C.3       7      M_A    0.0000
     44 C           1.0280   -0.6201   -1.4783 C.3       7      M_A    0.0000
     45 H           1.5704   -2.0799   -2.9883 H         7      M_A    0.0000
     46 H           2.4253   -0.5483   -3.1360 H         7      M_A    0.0000
     47 H           1.7313   -1.0492   -0.7538 H         7      M_A    0.0000
     48 H           1.0659    0.4685   -1.3473 H         7      M_A    0.0000
     49 C          -0.4177   -1.1202   -1.1362 C.3       8      M_A    0.0000
     50 C          -0.8381   -0.7499    0.2904 C.3       8      M_A    0.0000
     51 H          -1.1213   -0.6895   -1.8595 H         8      M_A    0.0000
     52 H          -0.4561   -2.2085   -1.2692 H         8      M_A    0.0000
     53 H          -1.7480   -0.1374    0.2674 H         8      M_A    0.0000
     54 H          -1.0829   -1.6565    0.8577 H         8      M_A    0.0000
     55 C           0.2818    0.0372    1.0544 C.3       9      M_A    0.0000
     56 C          -0.0069    0.1478    2.5555 C.3       9      M_A    0.0000
     57 H           1.2422   -0.4676    0.8922 H         9      M_A    0.0000
     58 H           0.3736    1.0380    0.6142 H         9      M_A    0.0000
     59 H          -0.9465    0.6900    2.7189 H         9      M_A    0.0000
     60 H          -0.1408   -0.8517    2.9875 H         9      M_A    0.0000
     61 C           1.1416    0.8828    3.3288 C.3      10      M_A    0.0000
     62 C           2.0344   -0.0910    4.1058 C.3      10      M_A    0.0000
     63 H           1.7432    1.4530    2.6102 H        10      M_A    0.0000
     64 H           0.6950    1.6129    4.0151 H        10      M_A    0.0000
     65 H           2.5239   -0.7869    3.4132 H        10      M_A    0.0000
     66 H           2.8341    0.4586    4.6178 H        10      M_A    0.0000
     67 C           1.2294   -0.9171    5.1674 C.3      11      M_A    0.0000
     68 C           0.9675   -0.1178    6.4486 C.3      11      M_A    0.0000
     69 H           0.2788   -1.2349    4.7213 H        11      M_A    0.0000
     70 H           1.7885   -1.8314    5.4021 H        11      M_A    0.0000
     71 H           1.8554   -0.1379    7.0926 H        11      M_A    0.0000
     72 H           0.7798    0.9349    6.2034 H        11      M_A    0.0000
     73 C          -0.2554   -0.6742    7.2564 C.3      12      M_A    0.0000
     74 C           0.0559   -0.8273    8.7493 C.3      12      M_A    0.0000
     75 H          -1.1081    0.0019    7.1174 H        12      M_A    0.0000
     76 H          -0.5485   -1.6424    6.8320 H        12      M_A    0.0000
     77 H          -0.3719   -1.7636    9.1287 H        12      M_A    0.0000
     78 H           1.1403   -0.8915    8.9028 H        12      M_A    0.0000
     79 C          -0.5048    0.3651    9.5985 C.3      13      M_A    0.0000
     80 C          -0.2016    0.2073   11.0925 C.3      13      M_A    0.0000
     81 H          -0.0717    1.3007    9.2235 H        13      M_A    0.0000
     82 H          -1.5882    0.4336    9.4397 H        13      M_A    0.0000
     83 H          -0.5860    1.0720   11.6477 H        13      M_A    0.0000
     84 H          -0.7165   -0.6762   11.4896 H        13      M_A    0.0000
     85 C           1.3338    0.0671   11.3756 C.3      14      M_A    0.0000
     86 C           1.6648    0.2052   12.8657 C.3      14      M_A    0.0000
     87 H           1.6745   -0.9071   11.0033 H        14      M_A    0.0000
     88 H           1.8709    0.8301   10.7986 H        14      M_A    0.0000
     89 H           2.7401    0.0593   13.0273 H        14      M_A    0.0000
     90 H           1.4291    1.2195   13.2109 H        14      M_A    0.0000
     91 C           0.8771   -0.8244   13.7471 C.3      15      M_A    0.0000
     92 C           0.4910   -0.2446   15.1123 C.3      15      M_A    0.0000
     93 H          -0.0226   -1.1394   13.2041 H        15      M_A    0.0000
     94 H           1.4948   -1.7212   13.8804 H        15      M_A    0.0000
     95 H           1.2775   -0.4567   15.8471 H        15      M_A    0.0000
     96 H           0.4069    0.8472   15.0471 H        15      M_A    0.0000
     97 C          -0.8653   -0.8252   15.6422 C.3      16      M_A    0.0000
     98 C          -1.0498   -0.5905   17.1455 C.3      16      M_A    0.0000
     99 H          -1.6896   -0.3625   15.0853 H        16      M_A    0.0000
    100 H          -0.9003   -1.8994   15.4221 H        16      M_A    0.0000
    101 H          -2.1029   -0.7269   17.4211 H        16      M_A    0.0000
    102 H          -0.4765   -1.3323   17.7152 H        16      M_A    0.0000
    103 C          -0.5948    0.8444   17.5831 C.3      17      M_A    0.0000
    104 C          -0.3882    0.9515   19.0979 C.3      17      M_A    0.0000
    105 H           0.3349    1.0961   17.0579 H        17      M_A    0.0000
    106 H          -1.3489    1.5702   17.2540 H        17      M_A    0.0000
    107 H          -0.0793    1.9699   19.3644 H        17      M_A    0.0000
    108 H          -1.3339    0.7623   19.6209 H        17      M_A    0.0000
    109 C           0.6904   -0.0574   19.6233 C.3      18      M_A    0.0000
    110 C           0.8076   -0.0391   21.1513 C.3      18      M_A    0.0000
    111 H           0.4294   -1.0655   19.2781 H        18      M_A    0.0000
    112 H           1.6576    0.1906   19.1688 H        18      M_A    0.0000
    113 H           1.5058   -0.8169   21.4844 H        18      M_A    0.0000
    114 H           1.2220    0.9203   21.4853 H        18      M_A    0.0000
    115 C          -0.5744   -0.2652   21.8559 C.3      19      M_A    0.0000
    116 C          -0.4744   -0.1508   23.3810 C.3      19      M_A    0.0000
    117 H          -1.2925    0.4689   21.4699 H        19      M_A    0.0000
    118 H          -0.9556   -1.2554   21.5771 H        19      M_A    0.0000
    119 H          -0.4194    0.9043   23.6763 H        19      M_A    0.0000
    120 H          -1.3773   -0.5623   23.8491 H        19      M_A    0.0000
    121 C           0.7777   -0.9014   23.9523 C.3      20      M_A    0.0000
    122 C           0.8910   -0.7667   25.4748 C.3      20      M_A    0.0000
    123 H           0.7136   -1.9601   23.6720 H        20      M_A    0.0000
    124 H           1.6792   -0.5021   23.4712 H        20      M_A    0.0000
    125 H           0.5451    0.2251   25.7915 H        20      M_A    0.0000
    126 H           0.2394   -1.4995   25.9668 H        20      M_A    0.0000
    127 C           2.3595   -0.9755   25.9820 C.3      21      M_A    0.0000
    128 C           2.4894   -0.7528   27.4929 C.3      21      M_A    0.0000
    129 H           2.6823   -1.9913   25.7224 H        21      M_A    0.0000
    130 H           3.0214   -0.2870   25.4421 H        21      M_A    0.0000
    131 H           3.4884   -1.0527   27.8328 H        21      M_A    0.0000
    132 H           2.3842    0.3140   27.7263 H        21      M_A    0.0000
    133 C           1.4167   -1.5561   28.3061 C.3      22      M_A    0.0000
    134 C           1.0701   -0.8795   29.6369 C.3      22      M_A    0.0000
    135 H           0.5139   -1.6626   27.6919 H        22      M_A    0.0000
    136 H           1.7960   -2.5695   28.4870 H        22      M_A    0.0000
    137 H           1.9158   -0.2715   29.9813 H        22      M_A    0.0000
    138 H           0.2241   -0.1943   29.5014 H        22      M_A    0.0000
    139 C           0.7058   -1.9173   30.7540 C.3      23      M_A    0.0000
    140 C           0.2783   -1.2388   32.0601 C.3      23      M_A    0.0000
    141 H          -0.0991   -2.5653   30.3857 H        23      M_A    0.0000
    142 H           1.5739   -2.5639   30.9326 H        23      M_A    0.0000
    143 H          -0.7456   -0.8560   31.9674 H        23      M_A    0.0000
    144 H           0.2685   -1.9699   32.8780 H        23      M_A    0.0000
    145 C           1.2271   -0.0543   32.4525 C.3      24      M_A    0.0000
    146 C           0.9144    0.5035   33.8454 C.3      24      M_A    0.0000
    147 H           2.2658   -0.4050   32.4122 H        24      M_A    0.0000
    148 H           1.1329    0.7385   31.7000 H        24      M_A    0.0000
    149 H           0.9526    1.5998   33.8289 H        24      M_A    0.0000
    150 H          -0.1058    0.2283   34.1404 H        24      M_A    0.0000
    151 C           1.9138   -0.0206   34.9334 C.3      25      M_A    0.0000
    152 C           1.1997   -0.4482   36.2203 C.3      25      M_A    0.0000
    153 H           2.4780   -0.8648   34.5179 H        25      M_A    0.0000
    154 H           2.6437    0.7686   35.1526 H        25      M_A    0.0000
    155 H           0.1955   -0.8229   35.9865 H        25      M_A    0.0000
    156 H           1.7422   -1.2755   36.6944 H        25      M_A    0.0000
    157 C           1.0733    0.7282   37.2486 C.3      26      M_A    0.0000
    158 C           1.4123    0.2897   38.6775 C.3      26      M_A    0.0000
    159 H           1.7387    1.5430   36.9373 H        26      M_A    0.0000
    160 H           0.0509    1.1240   37.2092 H        26      M_A    0.0000
    161 H           2.4979    0.1762   38.7886 H        26      M_A    0.0000
    162 H           1.1016    1.0622   39.3918 H        26      M_A    0.0000
    163 C           0.7208   -1.0631   39.0637 C.3      27      M_A    0.0000
    164 C           0.3717   -1.1322   40.5544 C.3      27      M_A    0.0000
    165 H          -0.1869   -1.1815   38.4589 H        27      M_A    0.0000
    166 H           1.3886   -1.8910   38.7949 H        27      M_A    0.0000
    167 H           0.4230   -2.1705   40.9051 H        27      M_A    0.0000
    168 H           1.1065   -0.5654   41.1395 H        27      M_A    0.0000
    169 C          -1.0590   -0.5671   40.8564 C.3      28      M_A    0.0000
    170 C          -1.1441    0.0903   42.2383 C.3      28      M_A    0.0000
    171 H          -1.3242    0.1586   40.0776 H        28      M_A    0.0000
    172 H          -1.7853   -1.3862   40.7842 H        28      M_A    0.0000
    173 H          -0.8083    1.1331   42.1801 H        28      M_A    0.0000
    174 H          -2.1863    0.1136   42.5802 H        28      M_A    0.0000
    175 C          -0.2782   -0.6605   43.3078 C.3      29      M_A    0.0000
    176 C          -0.2473    0.0762   44.6514 C.3      29      M_A    0.0000
    177 H          -0.6813   -1.6719   43.4425 H        29      M_A    0.0000
    178 H           0.7411   -0.7769   42.9190 H        29      M_A    0.0000
    179 H           0.1001    1.1068   44.5074 H        29      M_A    0.0000
    180 H          -1.2599    0.1404   45.0685 H        29      M_A    0.0000
    181 C           0.6853   -0.6302   45.6949 C.3      30      M_A    0.0000
    182 C           0.2303   -0.3876   47.1383 C.3      30      M_A    0.0000
    183 H           0.7030   -1.7062   45.4819 H        30      M_A    0.0000
    184 H           1.7105   -0.2648   45.5572 H        30      M_A    0.0000
    185 H          -0.8364   -0.1322   47.1585 H        30      M_A    0.0000
    186 H           0.3458   -1.3052   47.7283 H        30      M_A    0.0000
    187 C           1.0386    0.7634   47.8305 C.3      31      M_A    0.0000
    188 C           0.6248    0.9661   49.2922 C.3      31      M_A    0.0000
    189 H           2.1087    0.5289   47.7716 H        31      M_A    0.0000
    190 H           0.8878    1.6912   47.2648 H        31      M_A    0.0000
    191 H          -0.4667    0.9079   49.3857 H        31      M_A    0.0000
    192 H           1.0375    0.1626   49.9149 H        31      M_A    0.0000
    193 C           1.1078    2.3448   49.8608 C.3      32      M_A    0.0000
    194 C           1.1959    2.3434   51.3909 C.3      32      M_A    0.0000
    195 H           2.0875    2.5821   49.4279 H        32      M_A    0.0000
    196 H           0.4168    3.1276   49.5245 H        32      M_A    0.0000
    197 H           1.9698    1.6400   51.7225 H        32      M_A    0.0000
    198 H           1.4962    3.3351   51.7513 H        32      M_A    0.0000
    199 C          -0.1647    1.9518   52.0640 C.3      33      M_A    0.0000
    200 C           0.0279    1.3763   53.4713 C.3      33      M_A    0.0000
    201 H          -0.8072    2.8401   52.1055 H        33      M_A    0.0000
    202 H          -0.6776    1.2215   51.4259 H        33      M_A    0.0000
    203 H           1.0295    0.9387   53.5650 H        33      M_A    0.0000
    204 H          -0.0368    2.1778   54.2176 H        33      M_A    0.0000
    205 C          -1.0372    0.2786   53.8152 C.3      34      M_A    0.0000
    206 C          -1.8520    0.6310   55.0645 C.3      34      M_A    0.0000
    207 H          -1.7049    0.1517   52.9540 H        34      M_A    0.0000
    208 H          -0.5233   -0.6799   53.9592 H        34      M_A    0.0000
    209 H          -2.4953    1.4963   54.8623 H        34      M_A    0.0000
    210 H          -2.5168   -0.2013   55.3272 H        34      M_A    0.0000
    211 C          -0.9393    0.9569   56.2967 C.3      35      M_A    0.0000
    212 C          -1.7532    1.2306   57.5662 C.3      35      M_A    0.0000
    213 H          -0.2553    0.1153   56.4625 H        35      M_A    0.0000
    214 H          -0.3159    1.8266   56.0547 H        35      M_A    0.0000
    215 H          -2.6300    1.8445   57.3258 H        35      M_A    0.0000
    216 H          -2.1324    0.2881   57.9804 H        35      M_A    0.0000
    217 C          -0.9099    1.9628   58.6662 C.3      36      M_A    0.0000
    218 C          -0.8326    1.1598   59.9694 C.3      36      M_A    0.0000
    219 H           0.0992    2.1443   58.2758 H        36      M_A    0.0000
    220 H          -1.3556    2.9470   58.8567 H        36      M_A    0.0000
    221 H          -1.5892    1.5190   60.6780 H        36      M_A    0.0000
    222 H          -1.0593    0.1042   59.7747 H        36      M_A    0.0000
    223 C           0.5788    1.2573   60.6446 C.3      37      M_A    0.0000
    224 C           0.4845    1.4916   62.1563 C.3      37      M_A    0.0000
    225 H           1.1328    0.3326   60.4411 H        37      M_A    0.0000
    226 H           1.1413    2.0721   60.1720 H        37      M_A    0.0000
    227 H          -0.4384    1.0473   62.5490 H        37      M_A    0.0000
    228 H           1.3169    0.9918   62.6670 H        37      M_A    0.0000
    229 C           0.5080    3.0154   62.5239 C.3      38      M_A    0.0000
    230 C          -0.0339    3.2814   63.9327 C.3      38      M_A    0.0000
    231 H           1.5383    3.3832   62.4415 H        38      M_A    0.0000
    232 H          -0.0837    3.5671   61.7829 H        38      M_A    0.0000
    233 H           0.5024    4.1225   64.3894 H        38      M_A    0.0000
    234 H          -1.0903    3.5724   63.8806 H        38      M_A    0.0000
    235 C           0.1000    2.0297   64.8669 C.3      39      M_A    0.0000
    236 C           0.2713    2.4194   66.3392 C.3      39      M_A    0.0000
    237 H          -0.7907    1.4009   64.7454 H        39      M_A    0.0000
    238 H           0.9565    1.4303   64.5344 H        39      M_A    0.0000
    239 H           1.3300    2.6052   66.5585 H        39      M_A    0.0000
    240 H          -0.2621    3.3558   66.5450 H        39      M_A    0.0000
    241 C          -0.2595    1.3113   67.3128 C.3      40      M_A    0.0000
    242 C          -0.3054    1.7900   68.7680 C.3      40      M_A    0.0000
    243 H          -1.2606    1.0036   66.9862 H        40      M_A    0.0000
    244 H           0.3851    0.4276   67.2276 H        40      M_A    0.0000
    245 H           0.1956    2.7616   68.8604 H        40      M_A    0.0000
    246 H          -1.3457    1.9409   69.0817 H        40      M_A    0.0000
    247 C           0.3760    0.7748   69.7492 C.3      41      M_A    0.0000
    248 C           0.1735    1.1619   71.2183 C.3      41      M_A    0.0000
    249 H          -0.0342   -0.2256   69.5638 H        41      M_A    0.0000
    250 H           1.4471    0.7240   69.5177 H        41      M_A    0.0000
    251 H          -0.6837    1.8398   71.3140 H        41      M_A    0.0000
    252 H          -0.0617    0.2706   71.8131 H        41      M_A    0.0000
    253 C           1.4385    1.8577   71.8291 C.3      42      M_A    0.0000
    254 C           1.0755    2.8583   72.9318 C.3      42      M_A    0.0000
    255 H           2.1090    1.0860   72.2272 H        42      M_A    0.0000
    256 H           1.9854    2.3659   71.0252 H        42      M_A    0.0000
    257 H           1.5724    3.8187   72.7468 H        42      M_A    0.0000
    258 H          -0.0038    3.0548   72.9211 H        42      M_A    0.0000
    259 C           1.4816    2.3455   74.3565 C.3      43      M_A    0.0000
    260 C           1.1103    3.3421   75.4601 C.3      43      M_A    0.0000
    261 H           0.9900    1.3819   74.5389 H        43      M_A    0.0000
    262 H           2.5620    2.1554   74.3692 H        43      M_A    0.0000
    263 H           1.2817    2.8925   76.4461 H        43      M_A    0.0000
    264 H           1.7562    4.2269   75.4008 H        43      M_A    0.0000
    265 C          -0.3856    3.8014   75.3673 C.3      44      M_A    0.0000
    266 C          -0.8012    4.6712   76.5588 C.3      44      M_A    0.0000
    267 H          -0.5284    4.3538   74.4303 H        44      M_A    0.0000
    268 H          -1.0256    2.9122   75.3094 H        44      M_A    0.0000
    269 H           0.0390    5.3016   76.8755 H        44      M_A    0.0000
    270 H          -1.6110    5.3503   76.2645 H        44      M_A    0.0000
    271 C          -1.2793    3.8147   77.7816 C.3      45      M_A    0.0000
    272 C          -0.9993    4.5064   79.1203 C.3      45      M_A    0.0000
    273 H          -2.3536    3.6181   77.6772 H        45      M_A    0.0000
    274 H          -0.7762    2.8403   77.7491 H        45      M_A    0.0000
    275 H          -0.2184    5.2667   78.9947 H        45      M_A    0.0000
    276 H          -1.8977    5.0318   79.4674 H        45      M_A    0.0000
    277 C          -0.5459    3.4946   80.2284 C.3      46      M_A    0.0000
    278 C          -0.0994    4.2015   81.5129 C.3      46      M_A    0.0000
    279 H          -1.3764    2.8111   80.4444 H        46      M_A    0.0000
    280 H           0.2727    2.8805   79.8330 H        46      M_A    0.0000
    281 H           0.6246    4.9908   81.2757 H        46      M_A    0.0000
    282 H          -0.9567    4.6932   81.9891 H        46      M_A    0.0000
    283 C           0.5504    3.2120   82.5406 C.3      47      M_A    0.0000
    284 C          -0.0586    3.3458   83.9406 C.3      47      M_A    0.0000
    285 H           0.4245    2.1864   82.1720 H        47      M_A    0.0000
    286 H           1.6302    3.4021   82.5803 H        47      M_A    0.0000
    287 H          -1.0435    3.8249   83.8782 H        47      M_A    0.0000
    288 H          -0.2187    2.3524   84.3777 H        47      M_A    0.0000
    289 C           0.8499    4.1823   84.9062 C.3      48      M_A    0.0000
    290 C           0.0412    4.8808   86.0050 C.3      48      M_A    0.0000
    291 H           1.5968    3.5157   85.3550 H        48      M_A    0.0000
    292 H           1.4032    4.9241   84.3171 H        48      M_A    0.0000
    293 H          -0.3928    5.8113   85.6187 H        48      M_A    0.0000
    294 H          -0.7985    4.2464   86.3149 H        48      M_A    0.0000
    295 C           0.9139    5.2146   87.2637 C.3      49      M_A    0.0000
    296 C           0.0765    5.3019   88.5445 C.3      49      M_A    0.0000
    297 H           1.6876    4.4444   87.3720 H        49      M_A    0.0000
    298 H           1.4361    6.1637   87.0904 H        49      M_A    0.0000
    299 H          -0.4297    6.2738   88.5974 H        49      M_A    0.0000
    300 H          -0.7101    4.5373   88.5325 H        49      M_A    0.0000
    301 C           0.9447    5.1134   89.8360 C.3      50      M_A    0.0000
    302 C           0.2481    5.6563   91.0886 C.3      50      M_A    0.0000
    303 H           1.1654    4.0460   89.9610 H        50      M_A    0.0000
    304 H           1.9075    5.6193   89.6918 H        50      M_A    0.0000
    305 H           0.9799    5.8015   91.8929 H        50      M_A    0.0000
    306 H          -0.1892    6.6404   90.8791 H        50      M_A    0.0000
    307 C          -0.8829    4.6995   91.6012 C.3      51      M_A    0.0000
    308 C          -1.5449    5.2171   92.8829 C.3      51      M_A    0.0000
    309 H          -1.6341    4.5842   90.8100 H        51      M_A    0.0000
    310 H          -0.4531    3.7052   91.7749 H        51      M_A    0.0000
    311 H          -1.6080    6.3121   92.8580 H        51      M_A    0.0000
    312 H          -2.5742    4.8437   92.9519 H        51      M_A    0.0000
    313 C          -0.7633    4.7853   94.1714 C.3      52      M_A    0.0000
    314 C          -0.8527    5.8353   95.2843 C.3      52      M_A    0.0000
    315 H          -1.1655    3.8276   94.5246 H        52      M_A    0.0000
    316 H           0.2860    4.6074   93.9055 H        52      M_A    0.0000
    317 H          -1.6839    6.5235   95.0862 H        52      M_A    0.0000
    318 H          -1.0681    5.3491   96.2438 H        52      M_A    0.0000
    319 C           0.4690    6.6665   95.4245 C.3      53      M_A    0.0000
    320 C           0.7058    7.1430   96.8618 C.3      53      M_A    0.0000
    321 H           1.3119    6.0496   95.0890 H        53      M_A    0.0000
    322 H           0.4190    7.5273   94.7462 H        53      M_A    0.0000
    323 H          -0.0177    7.9254   97.1227 H        53      M_A    0.0000
    324 H           0.5425    6.3161   97.5640 H        53      M_A    0.0000
    325 C           2.1544    7.7045   97.0704 C.3      54      M_A    0.0000
    326 C           2.3053    8.4404   98.4064 C.3      54      M_A    0.0000
    327 H           2.8674    6.8724   97.0167 H        54      M_A    0.0000
    328 H           2.3951    8.3796   96.2399 H        54      M_A    0.0000
    329 H           3.3546    8.7177   98.5667 H        54      M_A    0.0000
    330 H           1.7317    9.3753   98.3878 H        54      M_A    0.0000
    331 C           1.8207    7.5742   99.6198 C.3      55      M_A    0.0000
    332 C           0.9839    8.3855  100.6151 C.3      55      M_A    0.0000
    333 H           1.2359    6.7278   99.2389 H        55      M_A    0.0000
    334 H           2.6977    7.1497  100.1239 H        55      M_A    0.0000
    335 H           1.6418    8.9490  101.2883 H        55      M_A    0.0000
    336 H           0.3740    9.1238  100.0798 H        55      M_A    0.0000
    337 C           0.0387    7.4776  101.4753 C.3      56      M_A    0.0000
    338 C          -0.7793    8.2861  102.4884 C.3      56      M_A    0.0000
    339 H          -0.6320    6.9283  100.8030 H        56      M_A    0.0000
    340 H           0.6467    6.7274  101.9959 H        56      M_A    0.0000
    341 H          -0.1934    8.4476  103.4017 H        56      M_A    0.0000
    342 H          -1.0075    9.2788  102.0809 H        56      M_A    0.0000
    343 C          -2.1234    7.5751  102.8694 C.3      57      M_A    0.0000
    344 C          -3.2302    8.5752  103.2211 C.3      57      M_A    0.0000
    345 H          -2.4398    6.9437  102.0298 H        57      M_A    0.0000
    346 H          -1.9401    6.9033  103.7171 H        57      M_A    0.0000
    347 H          -3.2306    8.7716  104.3005 H        57      M_A    0.0000
    348 H          -3.0404    9.5357  102.7262 H        57      M_A    0.0000
    349 C          -4.6504    8.0619  102.8004 C.3      58      M_A    0.0000
    350 C          -5.2766    7.1506  103.8617 C.3      58      M_A    0.0000
    351 H          -5.2993    8.9274  102.6174 H        58      M_A    0.0000
    352 H          -4.5645    7.5255  101.8472 H        58      M_A    0.0000
    353 H          -4.9290    6.1192  103.7243 H        58      M_A    0.0000
    354 H          -4.9530    7.4614  104.8628 H        58      M_A    0.0000
    355 C          -6.8433    7.1670  103.8093 C.3      59      M_A    0.0000
    356 C          -7.4147    5.9202  103.1251 C.3      59      M_A    0.0000
    357 H          -7.2305    7.2452  104.8328 H        59      M_A    0.0000
    358 H          -7.1699    8.0701  103.2791 H        59      M_A    0.0000
    359 H          -6.6712    5.1135  103.1316 H        59      M_A    0.0000
    360 H          -8.2849    5.5511  103.6818 H        59      M_A    0.0000
    361 C          -7.8440    6.1998  101.6435 C.3      60      M_A    0.0000
    362 C          -9.3572    6.0630  101.4417 C.3      60      M_A    0.0000
    363 H          -7.5171    7.2093  101.3651 H        60      M_A    0.0000
    364 H          -7.3120    5.5032  100.9838 H        60      M_A    0.0000
    365 H          -9.7398    5.2176  102.0268 H        60      M_A    0.0000
    366 H          -9.8687    6.9599  101.8123 H        60      M_A    0.0000
    367 C          -9.7388    5.8495   99.9362 C.3      61      M_A    0.0000
    368 C         -10.6287    4.6186   99.7316 C.3      61      M_A    0.0000
    369 H         -10.2501    6.7484   99.5702 H        61      M_A    0.0000
    370 H          -8.8177    5.7496   99.3487 H        61      M_A    0.0000
    371 H         -10.5311    3.9376  100.5861 H        61      M_A    0.0000
    372 H         -11.6827    4.9196   99.6874 H        61      M_A    0.0000
    373 C         -10.2707    3.8381   98.4200 C.3      62      M_A    0.0000
    374 C         -10.0529    2.3426   98.6751 C.3      62      M_A    0.0000
    375 H         -11.0783    3.9817   97.6915 H        62      M_A    0.0000
    376 H          -9.3679    4.2802   97.9807 H        62      M_A    0.0000
    377 H          -9.6369    2.1889   99.6786 H        62      M_A    0.0000
    378 H         -11.0130    1.8125   98.6476 H        62      M_A    0.0000
    379 C          -9.0878    1.6948   97.6233 C.3      63      M_A    0.0000
    380 C          -9.4682    0.2456   97.3010 C.3      63      M_A    0.0000
    381 H          -9.1040    2.3003   96.7086 H        63      M_A    0.0000
    382 H          -8.0624    1.7373   98.0110 H        63      M_A    0.0000
    383 H          -9.6361   -0.3146   98.2292 H        63      M_A    0.0000
    384 H         -10.4121    0.2198   96.7424 H        63      M_A    0.0000
    385 C          -8.3644   -0.4860   96.4621 C.3      64      M_A    0.0000
    386 C          -8.9053   -1.0211   95.1317 C.3      64      M_A    0.0000
    387 H          -7.5386    0.2127   96.2787 H        64      M_A    0.0000
    388 H          -7.9537   -1.3092   97.0596 H        64      M_A    0.0000
    389 H          -9.5638   -1.8799   95.3115 H        64      M_A    0.0000
    390 H          -9.5152   -0.2545   94.6379 H        64      M_A    0.0000
    391 C          -7.7582   -1.4593   94.1572 C.3      65      M_A    0.0000
    392 C          -8.0207   -1.0150   92.7140 C.3      65      M_A    0.0000
    393 H          -6.8105   -1.0374   94.5141 H        65      M_A    0.0000
    394 H          -7.6539   -2.5505   94.2018 H        65      M_A    0.0000
    395 H          -9.0157   -1.3476   92.3931 H        65      M_A    0.0000
    396 H          -8.0193    0.0802   92.6514 H        65      M_A    0.0000
    397 C          -6.9527   -1.5796   91.7150 C.3      66      M_A    0.0000
    398 C          -6.9263   -0.8039   90.3934 C.3      66      M_A    0.0000
    399 H          -5.9661   -1.5415   92.1933 H        66      M_A    0.0000
    400 H          -7.1703   -2.6380   91.5256 H        66      M_A    0.0000
    401 H          -7.9493   -0.5685   90.0748 H        66      M_A    0.0000
    402 H          -6.4105    0.1547   90.5301 H        66      M_A    0.0000
    403 C          -6.2122   -1.6032   89.2495 C.3      67      M_A    0.0000
    404 C          -4.7363   -1.2163   89.1044 C.3      67      M_A    0.0000
    405 H          -6.3009   -2.6763   89.4594 H        67      M_A    0.0000
    406 H          -6.7431   -1.4217   88.3067 H        67      M_A    0.0000
    407 H          -4.6188   -0.4740   88.3052 H        67      M_A    0.0000
    408 H          -4.3786   -0.7443   90.0279 H        67      M_A    0.0000
    409 C          -3.8269   -2.4522   88.7836 C.3      68      M_A    0.0000
    410 C          -2.5315   -2.4484   89.6028 C.3      68      M_A    0.0000
    411 H          -4.3945   -3.3699   88.9818 H        68      M_A    0.0000
    412 H          -3.5940   -2.4511   87.7116 H        68      M_A    0.0000
    413 H          -1.8915   -1.6139   89.2906 H        68      M_A    0.0000
    414 H          -2.7584   -2.2914   90.6646 H        68      M_A    0.0000
    415 C          -1.7281   -3.7859   89.4502 C.3      69      M_A    0.0000
    416 C          -0.3225   -3.6912   90.0536 C.3      69      M_A    0.0000
    417 H          -2.2914   -4.5938   89.9336 H        69      M_A    0.0000
    418 H          -1.6639   -4.0402   88.3850 H        69      M_A    0.0000
    419 H           0.1534   -4.6797   90.0557 H        69      M_A    0.0000
    420 H           0.3085   -3.0392   89.4370 H        69      M_A    0.0000
    421 C          -0.3414   -3.1365   91.5197 C.3      70      M_A    0.0000
    422 C           1.0542   -2.7288   92.0045 C.3      70      M_A    0.0000
    423 H          -1.0210   -2.2764   91.5636 H        70      M_A    0.0000
    424 H          -0.7607   -3.9034   92.1826 H        70      M_A    0.0000
    425 H           1.5398   -3.5744   92.5072 H        70      M_A    0.0000
    426 H           1.6877   -2.4652   91.1485 H        70      M_A    0.0000
    427 C           1.0082   -1.5125   92.9925 C.3      71      M_A    0.0000
    428 C           1.7762   -1.7885   94.2898 C.3      71      M_A    0.0000
    429 H           1.4251   -0.6317   92.4886 H        71      M_A    0.0000
    430 H          -0.0399   -1.2797   93.2181 H        71      M_A    0.0000
    431 H           1.4984   -2.7717   94.6894 H        71      M_A    0.0000
    432 H           2.8541   -1.8233   94.0887 H        71      M_A    0.0000
    433 C           1.5014   -0.7017   95.3856 C.3      72      M_A    0.0000
    434 C           1.4263   -1.3024   96.7936 C.3      72      M_A    0.0000
    435 H           2.2954    0.0541   95.3409 H        72      M_A    0.0000
    436 H           0.5628   -0.1870   95.1456 H        72      M_A    0.0000
    437 H           1.0130   -2.3176   96.7478 H        72      M_A    0.0000
    438 H           2.4336   -1.3912   97.2189 H        72      M_A    0.0000
    439 C           0.5435   -0.4407   97.7608 C.3      73      M_A    0.0000
    440 C          -0.1790   -1.2975   98.8062 C.3      73      M_A    0.0000
    441 H           1.1828    0.2995   98.2579 H        73      M_A    0.0000
    442 H          -0.1865    0.1223   97.1662 H        73      M_A    0.0000
    443 H          -1.2128   -0.9510   98.9272 H        73      M_A    0.0000
    444 H          -0.2337   -2.3391   98.4661 H        73      M_A    0.0000
    445 C           0.5337   -1.2584  100.2019 C.3      74      M_A    0.0000
    446 C          -0.4484   -0.9935  101.3483 C.3      74      M_A    0.0000
    447 H           1.0502   -2.2130  100.3621 H        74      M_A    0.0000
    448 H           1.3074   -0.4810  100.1822 H        74      M_A    0.0000
    449 H          -1.1444   -0.1925  101.0699 H        74      M_A    0.0000
    450 H          -1.0560   -1.8872  101.5373 H        74      M_A    0.0000
    451 C           0.2822   -0.5894  102.6751 C.3      75      M_A    0.0000
    452 C          -0.6983   -0.3505  103.8286 C.3      75      M_A    0.0000
    453 H           0.9924   -1.3814  102.9430 H        75      M_A    0.0000
    454 H           0.8743    0.3157  102.4912 H        75      M_A    0.0000
    455 H          -1.4277    0.4197  103.5489 H        75      M_A    0.0000
    456 H          -1.2687   -1.2651  104.0330 H        75      M_A    0.0000
    457 C           0.0289    0.0959  105.1437 C.3      76      M_A    0.0000
    458 C          -0.7414   -0.3178  106.4025 C.3      76      M_A    0.0000
    459 H           1.0348   -0.3416  105.1575 H        76      M_A    0.0000
    460 H           0.1592    1.1850  105.1234 H        76      M_A    0.0000
    461 H          -1.5690    0.3794  106.5832 H        76      M_A    0.0000
    462 H          -1.1897   -1.3089  106.2604 H        76      M_A    0.0000
    463 C           0.1746   -0.3551  107.6741 C.3      77      M_A    0.0000
    464 C          -0.6137   -0.1090  108.9652 C.3      77      M_A    0.0000
    465 H           0.6766   -1.3295  107.7198 H        77      M_A    0.0000
    466 H           0.9626    0.4003  107.5646 H        77      M_A    0.0000
    467 H          -1.0659    0.8903  108.9452 H        77      M_A    0.0000
    468 H          -1.4394   -0.8269  109.0445 H        77      M_A    0.0000
    469 C           0.2862   -0.2308  110.2431 C.3      78      M_A    0.0000
    470 C          -0.4946    0.0482  111.5321 C.3      78      M_A    0.0000
    471 H           0.7190   -1.2384  110.2760 H        78      M_A    0.0000
    472 H           1.1256    0.4697  110.1526 H        78      M_A    0.0000
    473 H          -0.9057    1.0651  111.5102 H        78      M_A    0.0000
    474 H          -1.3491   -0.6355  111.6097 H        78      M_A    0.0000
    475 C           0.3964   -0.1092  112.8122 C.3      79      M_A    0.0000
    476 C          -0.4049    0.0818  114.1047 C.3      79      M_A    0.0000
    477 H           0.8599   -1.1034  112.8005 H        79      M_A    0.0000
    478 H           1.2145    0.6203  112.7655 H        79      M_A    0.0000
    479 H          -0.8228    1.0955  114.1419 H        79      M_A    0.0000
    480 H          -1.2556   -0.6106  114.1257 H        79      M_A    0.0000
    481 C           0.4686   -0.1519  115.3853 C.3      80      M_A    0.0000
    482 C          -0.3225    0.0774  116.6778 C.3      80      M_A    0.0000
    483 H           0.8631   -1.1753  115.3623 H        80      M_A    0.0000
    484 H           1.3347    0.5204  115.3501 H        80      M_A    0.0000
    485 H          -0.7234    1.0984  116.6974 H        80      M_A    0.0000
    486 H          -1.1845   -0.6002  116.7165 H        80      M_A    0.0000
    487 C           0.5538   -0.1460  117.9583 C.3      81      M_A    0.0000
    488 C          -0.2438    0.0586  119.2509 C.3      81      M_A    0.0000
    489 H           0.9696   -1.1608  117.9295 H        81      M_A    0.0000
    490 H           1.4057    0.5445  117.9286 H        81      M_A    0.0000
    491 H          -0.7411    1.0364  119.2353 H        81      M_A    0.0000
    492 H          -1.0360   -0.6965  119.3278 H        81      M_A    0.0000
    493 C           0.6617   -0.0273  120.5277 C.3      82      M_A    0.0000
    494 C           1.3035    1.3201  120.8764 C.3      82      M_A    0.0000
    495 H           0.0540   -0.3834  121.3688 H        82      M_A    0.0000
    496 H           1.4397   -0.7822  120.3593 H        82      M_A    0.0000
    497 H           2.0100    1.1966  121.7065 H        82      M_A    0.0000
    498 H           1.8827    1.6931  120.0226 H        82      M_A    0.0000
    499 C           0.2391    2.3997  121.2751 C.3      83      M_A    0.0000
    500 C           0.8760    3.7624  121.5693 C.3      83      M_A    0.0000
    501 H          -0.4912    2.4935  120.4618 H        83      M_A    0.0000
    502 H          -0.3125    2.0446  122.1544 H        83      M_A    0.0000
    503 H           1.9421    3.6382  121.7963 H        83      M_A    0.0000
    504 H           0.8156    4.4052  120.6823 H        83      M_A    0.0000
    505 C           0.1852    4.4939  122.7715 C.3      84      M_A    0.0000
    506 C           1.1234    5.4901  123.4617 C.3      84      M_A    0.0000
    507 H          -0.7089    5.0122  122.4035 H        84      M_A    0.0000
    508 H          -0.1605    3.7419  123.4915 H        84      M_A    0.0000
    509 H           1.7552    5.9899  122.7170 H        84      M_A    0.0000
    510 H           0.5393    6.2755  123.9573 H        84      M_A    0.0000
    511 C           2.0454    4.7993  124.5248 C.3      85      M_A    0.0000
    512 C           2.1848    5.6337  125.8027 C.3      85      M_A    0.0000
    513 H           1.6314    3.8118  124.7636 H        85      M_A    0.0000
    514 H           3.0326    4.6274  124.0782 H        85      M_A    0.0000
    515 H           3.2430    5.7296  126.0759 H        85      M_A    0.0000
    516 H           1.8105    6.6505  125.6308 H        85      M_A    0.0000
    517 C           1.4062    5.0062  127.0100 C.3      86      M_A    0.0000
    518 C           2.3484    4.4784  128.0975 C.3      86      M_A    0.0000
    519 H           0.7343    5.7648  127.4301 H        86      M_A    0.0000
    520 H           0.7702    4.1939  126.6367 H        86      M_A    0.0000
    521 H           3.3488    4.3107  127.6796 H        86      M_A    0.0000
    522 H           2.4605    5.2255  128.8931 H        86      M_A    0.0000
    523 C           1.8343    3.1396  128.7305 C.3      87      M_A    0.0000
    524 C           2.0444    3.0962  130.2481 C.3      87      M_A    0.0000
    525 H           0.7692    3.0230  128.4947 H        87      M_A    0.0000
    526 H           2.3560    2.3001  128.2544 H        87      M_A    0.0000
    527 H           3.0073    2.6251  130.4812 H        87      M_A    0.0000
    528 H           2.0866    4.1156  130.6512 H        87      M_A    0.0000
    529 C           0.9055    2.3089  130.9832 C.3      88      M_A    0.0000
    530 C           1.4502    1.3933  132.0850 C.3      88      M_A    0.0000
    531 H           0.1959    3.0290  131.4092 H        88      M_A    0.0000
    532 H           0.3497    1.7186  130.2441 H        88      M_A    0.0000
    533 H           1.6546    0.3953  131.6778 H        88      M_A    0.0000
    534 H           2.4051    1.7823  132.4595 H        88      M_A    0.0000
    535 C           0.4546    1.2540  133.2879 C.3      89      M_A    0.0000
    536 C           0.9050    0.1895  134.2944 C.3      89      M_A    0.0000
    537 H           0.3629    2.2274  133.7855 H        89      M_A    0.0000
    538 H          -0.5398    1.0052  132.8969 H        89      M_A    0.0000
    539 H           0.5047   -0.7912  134.0091 H        89      M_A    0.0000
    540 H           1.9982    0.0992  134.2824 H        89      M_A    0.0000
    541 C           0.4412    0.5191  135.7552 C.3      90      M_A    0.0000
    542 C           0.5941   -0.6798  136.6976 C.3      90      M_A    0.0000
    543 H           1.0266    1.3684  136.1289 H        90      M_A    0.0000
    544 H          -0.6058    0.8455  135.7286 H        90      M_A    0.0000
    545 H          -0.3165   -1.2914  136.6790 H        90      M_A    0.0000
    546 H           1.4135   -1.3245  136.3563 H        90      M_A    0.0000
    547 C           0.8782   -0.2413  138.1756 C.3      91      M_A    0.0000
    548 C          -0.1752   -0.7750  139.1525 C.3      91      M_A    0.0000
    549 H           1.8745   -0.5980  138.4649 H        91      M_A    0.0000
    550 H           0.9109    0.8544  138.2193 H        91      M_A    0.0000
    551 H          -1.1701   -0.4092  138.8698 H        91      M_A    0.0000
    552 H          -0.2158   -1.8701  139.1007 H        91      M_A    0.0000
    553 C           0.1177   -0.3498  140.6327 C.3      92      M_A    0.0000
    554 C          -0.9806   -0.8103  141.5975 C.3      92      M_A    0.0000
    555 H           1.0850   -0.7689  140.9362 H        92      M_A    0.0000
    556 H           0.2206    0.7417  140.6732 H        92      M_A    0.0000
    557 H          -1.9129   -0.2699  141.3917 H        92      M_A    0.0000
    558 H          -1.1935   -1.8755  141.4442 H        92      M_A    0.0000
    559 C          -0.5863   -0.5846  143.0978 C.3      93      M_A    0.0000
    560 C          -1.8126   -0.4203  144.0023 C.3      93      M_A    0.0000
    561 H           0.0193   -1.4345  143.4360 H        93      M_A    0.0000
    562 H           0.0529    0.3044  143.1656 H        93      M_A    0.0000
    563 H          -2.3776    0.4740  143.7113 H        93      M_A    0.0000
    564 H          -2.4893   -1.2748  143.8775 H        93      M_A    0.0000
    565 C          -1.4228   -0.3013  145.5160 C.3      94      M_A    0.0000
    566 C          -2.0636    0.9188  146.1867 C.3      94      M_A    0.0000
    567 H          -1.7291   -1.2190  146.0333 H        94      M_A    0.0000
    568 H          -0.3302   -0.2441  145.5963 H        94      M_A    0.0000
    569 H          -2.0235    1.7831  145.5122 H        94      M_A    0.0000
    570 H          -3.1246    0.7242  146.3866 H        94      M_A    0.0000
    571 C          -1.3564    1.2959  147.5340 C.3      95      M_A    0.0000
    572 C          -2.2574    1.0549  148.7502 C.3      95      M_A    0.0000
    573 H          -0.4348    0.7081  147.6262 H        95      M_A    0.0000
    574 H          -1.0550    2.3499  147.4921 H        95      M_A    0.0000
    575 H          -2.9654    1.8850  148.8643 H        95      M_A    0.0000
    576 H          -2.8566    0.1481  148.6006 H        95      M_A    0.0000
    577 C          -1.4365    0.9049  150.0772 C.3      96      M_A    0.0000
    578 C          -1.9987   -0.1929  150.9870 C.3      96      M_A    0.0000
    579 H          -0.3919    0.6852  149.8239 H        96      M_A    0.0000
    580 H          -1.4372    1.8671  150.6041 H        96      M_A    0.0000
    581 H          -2.8106    0.2099  151.6051 H        96      M_A    0.0000
    582 H          -2.4334   -0.9976  150.3812 H        96      M_A    0.0000
    583 C          -0.9033   -0.8040  151.9274 C.3      97      M_A    0.0000
    584 C          -1.0685   -0.3512  153.3824 C.3      97      M_A    0.0000
    585 H          -0.9547   -1.8981  151.8658 H        97      M_A    0.0000
    586 H           0.0862   -0.5135  151.5531 H        97      M_A    0.0000
    587 H          -1.5972    0.6093  153.4197 H        97      M_A    0.0000
    588 H          -1.6857   -1.0721  153.9328 H        97      M_A    0.0000
    589 C           0.3078   -0.1994  154.1173 C.3      98      M_A    0.0000
    590 C           0.1447   -0.0756  155.6362 C.3      98      M_A    0.0000
    591 H           0.9352   -1.0664  153.8757 H        98      M_A    0.0000
    592 H           0.8247    0.6835  153.7212 H        98      M_A    0.0000
    593 H           0.0193   -1.0696  156.0833 H        98      M_A    0.0000
    594 H           1.0513    0.3564  156.0779 H        98      M_A    0.0000
    595 C          -1.0835    0.8148  156.0312 C.3      99      M_A    0.0000
    596 C          -0.6938    2.2822  156.2403 C.3      99      M_A    0.0000
    597 H          -1.8447    0.7361  155.2450 H        99      M_A    0.0000
    598 H          -1.5333    0.4108  156.9467 H        99      M_A    0.0000
    599 H          -0.2778    2.6967  155.3137 H        99      M_A    0.0000
    600 H          -1.5838    2.8773  156.4799 H        99      M_A    0.0000
    601 C           0.3571    2.4598  157.3898 C.3     100      M_A    0.0000
    602 C           1.3744    3.5638  157.0813 C.3     100      M_A    0.0000
    603 H          -0.1739    2.6874  158.3224 H       100      M_A    0.0000
    604 H           0.8742    1.5050  157.5468 H       100      M_A    0.0000
    605 H           1.2281    3.9353  156.0595 H       100      M_A    0.0000
    606 H           1.2181    4.4175  157.7523 H       100      M_A    0.0000
    607 C           2.8538    3.0674  157.2315 C.3     101      M_A    0.0000
    608 C           3.5971    3.0428  155.8914 C.3     101      M_A    0.0000
    609 H           3.3764    3.7224  157.9396 H       101      M_A    0.0000
    610 H           2.8468    2.0645  157.6762 H       101      M_A    0.0000
    611 H           2.8808    2.9517  155.0655 H       101      M_A    0.0000
    612 H           4.1328    3.9883  155.7409 H       101      M_A    0.0000
    613 C           4.6233    1.8611  155.8028 C.3     102      M_A    0.0000
    614 C           4.2680    0.8651  154.6933 C.3     102      M_A    0.0000
    615 H           5.6248    2.2746  155.6304 H       102      M_A    0.0000
    616 H           4.6567    1.3483  156.7720 H       102      M_A    0.0000
    617 H           3.4718    0.1914  155.0335 H       102      M_A    0.0000
    618 H           3.8761    1.3998  153.8192 H       102      M_A    0.0000
    619 C           5.5015    0.0058  154.2489 C.3     103      M_A    0.0000
    620 C           5.2674   -1.4951  154.4524 C.3     103      M_A    0.0000
    621 H           5.7151    0.2135  153.1930 H       103      M_A    0.0000
    622 H           6.3816    0.3299  154.8180 H       103      M_A    0.0000
    623 H           4.5091   -1.8567  153.7469 H       103      M_A    0.0000
    624 H           6.1881   -2.0519  154.2382 H       103      M_A    0.0000
    625 C           4.8015   -1.8313  155.9110 C.3     104      M_A    0.0000
    626 C           3.8653   -3.0440  155.9567 C.3     104      M_A    0.0000
    627 H           5.6872   -2.0162  156.5313 H       104      M_A    0.0000
    628 H           4.2992   -0.9521  156.3332 H       104      M_A    0.0000
    629 H           3.5918   -3.3466  154.9383 H       104      M_A    0.0000
    630 H           4.3797   -3.8993  156.4121 H       104      M_A    0.0000
    631 C           2.5550   -2.7527  156.7665 C.3     105      M_A    0.0000
    632 C           1.4708   -3.8065  156.5155 C.3     105      M_A    0.0000
    633 H           2.8010   -2.7132  157.8349 H       105      M_A    0.0000
    634 H           2.1833   -1.7578  156.4918 H       105      M_A    0.0000
    635 H           1.0869   -3.7149  155.4919 H       105      M_A    0.0000
    636 H           1.8975   -4.8134  156.6030 H       105      M_A    0.0000
    637 C           0.2727   -3.6767  157.5181 C.3     106      M_A    0.0000
    638 C          -1.0542   -4.1300  156.8993 C.3     106      M_A    0.0000
    639 H           0.4937   -4.2725  158.4123 H       106      M_A    0.0000
    640 H           0.1975   -2.6324  157.8459 H       106      M_A    0.0000
    641 H          -1.0150   -4.0269  155.8078 H       106      M_A    0.0000
    642 H          -1.2234   -5.1934  157.1094 H       106      M_A    0.0000
    643 C          -2.2740   -3.3076  157.4409 C.3     107      M_A    0.0000
    644 C          -3.2693   -2.9468  156.3327 C.3     107      M_A    0.0000
    645 H          -2.7760   -3.8924  158.2216 H       107      M_A    0.0000
    646 H          -1.8998   -2.3955  157.9221 H       107      M_A    0.0000
    647 H          -2.9897   -3.4485  155.3980 H       107      M_A    0.0000
    648 H          -4.2718   -3.3066  156.5957 H       107      M_A    0.0000
    649 C          -3.3382   -1.4019  156.0759 C.3     108      M_A    0.0000
    650 C          -4.7095   -0.8151  156.4284 C.3     108      M_A    0.0000
    651 H          -2.5555   -0.9100  156.6666 H       108      M_A    0.0000
    652 H          -3.1059   -1.2080  155.0214 H       108      M_A    0.0000
    653 H          -5.4869   -1.2751  155.8057 H       108      M_A    0.0000
    654 H          -4.9618   -1.0479  157.4703 H       108      M_A    0.0000
    655 C          -4.7589    0.7394  156.2317 C.3     109      M_A    0.0000
    656 C          -6.1940    1.2649  156.1159 C.3     109      M_A    0.0000
    657 H          -4.2497    1.2190  157.0768 H       109      M_A    0.0000
    658 H          -4.1890    1.0002  155.3313 H       109      M_A    0.0000
    659 H          -6.8176    0.5404  155.5776 H       109      M_A    0.0000
    660 H          -6.6344    1.3793  157.1142 H       109      M_A    0.0000
    661 C          -6.2638    2.6430  155.3719 C.3     110      M_A    0.0000
    662 C          -6.5535    3.8052  156.3280 C.3     110      M_A    0.0000
    663 H          -5.3131    2.8122  154.8512 H       110      M_A    0.0000
    664 H          -7.0408    2.5888  154.5994 H       110      M_A    0.0000
    665 H          -6.6080    4.7476  155.7690 H       110      M_A    0.0000
    666 H          -7.5314    3.6650  156.8052 H       110      M_A    0.0000
    667 C          -5.4616    3.9424  157.4445 C.3     111      M_A    0.0000
    668 C          -4.0927    4.3292  156.8737 C.3     111      M_A    0.0000
    669 H          -5.7920    4.6944  158.1717 H       111      M_A    0.0000
    670 H          -5.3882    2.9912  157.9861 H       111      M_A    0.0000
    671 H          -3.2999    3.7704  157.3863 H       111      M_A    0.0000
    672 H          -4.0363    4.0548  155.8130 H       111      M_A    0.0000
    673 C          -3.8020    5.8631  157.0150 C.3     112      M_A    0.0000
    674 C          -2.9532    6.4024  155.8584 C.3     112      M_A    0.0000
    675 H          -4.7569    6.4010  157.0635 H       112      M_A    0.0000
    676 H          -3.2921    6.0399  157.9702 H       112      M_A    0.0000
    677 H          -3.5080    6.3222  154.9154 H       112      M_A    0.0000
    678 H          -2.7434    7.4684  156.0109 H       112      M_A    0.0000
    679 C          -1.5936    5.6359  155.7116 C.3     113      M_A    0.0000
    680 C          -0.3843    6.5696  155.8325 C.3     113      M_A    0.0000
    681 H          -1.5436    4.8542  156.4797 H       113      M_A    0.0000
    682 H          -1.5788    5.1250  154.7408 H       113      M_A    0.0000
    683 H          -0.6839    7.6029  155.6179 H       113      M_A    0.0000
    684 H          -0.0026    6.5595  156.8610 H       113      M_A    0.0000
    685 C           0.7765    6.1675  154.8588 C.3     114      M_A    0.0000
    686 C           1.5700    7.3833  154.3674 C.3     114      M_A    0.0000
    687 H           1.4440    5.4663  155.3748 H       114      M_A    0.0000
    688 H           0.3504    5.6263  154.0049 H       114      M_A    0.0000
    689 H           1.7813    7.2863  153.2953 H       114      M_A    0.0000
    690 H           0.9737    8.2960  154.4897 H       114      M_A    0.0000
    691 C           2.9252    7.5583  155.1357 C.3     115      M_A    0.0000
    692 C           4.0997    7.8260  154.1882 C.3     115      M_A    0.0000
    693 H           2.8224    8.3844  155.8502 H       115      M_A    0.0000
    694 H           3.1165    6.6535  155.7258 H       115      M_A    0.0000
    695 H           3.7482    8.3547  153.2934 H       115      M_A    0.0000
    696 H           4.8329    8.4817  154.6739 H       115      M_A    0.0000
    697 C           4.8184    6.5052  153.7449 C.3     116      M_A    0.0000
    698 C           6.3451    6.6369  153.7739 C.3     116      M_A    0.0000
    699 H           4.4986    5.6898  154.4055 H       116      M_A    0.0000
    700 H           4.4827    6.2420  152.7342 H       116      M_A    0.0000
    701 H           6.7211    6.8765  152.7715 H       116      M_A    0.0000
    702 H           6.6387    7.4678  154.4274 H       116      M_A    0.0000
    703 C           7.0450    5.3272  154.2764 C.3     117      M_A    0.0000
    704 C           8.1000    5.6084  155.3520 C.3     117      M_A    0.0000
    705 H           6.2800    4.6458  154.6688 H       117      M_A    0.0000
    706 H           7.5071    4.8221  153.4192 H       117      M_A    0.0000
    707 H           9.0970    5.6578  154.8971 H       117      M_A    0.0000
    708 H           7.9154    6.5865  155.8134 H       117      M_A    0.0000
    709 C           8.1103    4.5141  156.4744 C.3     118      M_A    0.0000
    710 C           8.8781    3.2565  156.0525 C.3     118      M_A    0.0000
    711 H           8.5572    4.9413  157.3807 H       118      M_A    0.0000
    712 H           7.0742    4.2556  156.7258 H       118      M_A    0.0000
    713 H           8.6858    3.0353  154.9954 H       118      M_A    0.0000
    714 H           9.9579    3.4255  156.1476 H       118      M_A    0.0000
    715 C           8.4851    2.0047  156.9103 C.3     119      M_A    0.0000
    716 C           9.0874    0.7087  156.3566 C.3     119      M_A    0.0000
    717 H           8.8202    2.1641  157.9427 H       119      M_A    0.0000
    718 H           7.3912    1.9274  156.9425 H       119      M_A    0.0000
    719 H           9.3276    0.8300  155.2930 H       119      M_A    0.0000
    720 H          10.0310    0.4834  156.8689 H       119      M_A    0.0000
    721 C           8.1195   -0.5135  156.5198 C.3     120      M_A    0.0000
    722 C           8.8729   -1.8167  156.8081 C.3     120      M_A    0.0000
    723 H           7.4136   -0.2996  157.3319 H       120      M_A    0.0000
    724 H           7.5242   -0.6179  155.6042 H       120      M_A    0.0000
    725 H           9.8532   -1.5950  157.2479 H       120      M_A    0.0000
    726 H           8.3236   -2.4132  157.5471 H       120      M_A    0.0000
    727 C           9.0822   -2.6802  155.5165 C.3     121      M_A    0.0000
    728 C           8.9689   -4.1826  155.7976 C.3     121      M_A    0.0000
    729 H           8.3394   -2.3807  154.7668 H       121      M_A    0.0000
    730 H          10.0677   -2.4500  155.0931 H       121      M_A    0.0000
    731 H           9.6001   -4.7447  155.0984 H       121      M_A    0.0000
    732 H           9.3395   -4.4056  156.8058 H       121      M_A    0.0000
    733 C           7.4942   -4.7003  155.6754 C.3     122      M_A    0.0000
    734 C           7.4208   -6.2286  155.5857 C.3     122      M_A    0.0000
    735 H           6.9222   -4.3464  156.5420 H       122      M_A    0.0000
    736 H           7.0334   -4.2488  154.7880 H       122      M_A    0.0000
    737 H           7.3430   -6.5406  154.5368 H       122      M_A    0.0000
    738 H           8.3433   -6.6732  155.9791 H       122      M_A    0.0000
    739 C           6.2006   -6.8122  156.3782 C.3     123      M_A    0.0000
    740 C           5.1543   -7.4422  155.4523 C.3     123      M_A    0.0000
    741 H           6.5679   -7.5584  157.0936 H       123      M_A    0.0000
    742 H           5.7448   -6.0076  156.9685 H       123      M_A    0.0000
    743 H           5.6489   -8.0465  154.6818 H       123      M_A    0.0000
    744 H           4.5098   -8.1235  156.0215 H       123      M_A    0.0000
    745 C           4.2564   -6.3654  154.7509 C.3     124      M_A    0.0000
    746 C           3.2771   -6.9884  153.7500 C.3     124      M_A    0.0000
    747 H           3.7057   -5.8092  155.5195 H       124      M_A    0.0000
    748 H           4.9048   -5.6415  154.2420 H       124      M_A    0.0000
    749 H           3.6997   -6.9524  152.7382 H       124      M_A    0.0000
    750 H           3.1191   -8.0476  153.9879 H       124      M_A    0.0000
    751 C           1.8894   -6.2593  153.7442 C.3     125      M_A    0.0000
    752 C           1.1701   -6.3901  152.3971 C.3     125      M_A    0.0000
    753 H           1.2670   -6.6773  154.5451 H       125      M_A    0.0000
    754 H           2.0451   -5.2007  153.9862 H       125      M_A    0.0000
    755 H           1.8114   -6.0143  151.5902 H       125      M_A    0.0000
    756 H           0.9732   -7.4466  152.1769 H       125      M_A    0.0000
    757 C          -0.1874   -5.6067  152.3699 C.3     126      M_A    0.0000
    758 C          -1.3549   -6.4835  151.9039 C.3     126      M_A    0.0000
    759 H          -0.3893   -5.2142  153.3743 H       126      M_A    0.0000
    760 H          -0.0814   -4.7384  151.7078 H       126      M_A    0.0000
    761 H          -1.4549   -6.4279  150.8128 H       126      M_A    0.0000
    762 H          -1.1572   -7.5345  152.1489 H       126      M_A    0.0000
    763 C          -2.7147   -6.0593  152.5583 C.3     127      M_A    0.0000
    764 C          -3.4143   -7.2312  153.2556 C.3     127      M_A    0.0000
    765 H          -2.5247   -5.2529  153.2775 H       127      M_A    0.0000
    766 H          -3.3660   -5.6411  151.7809 H       127      M_A    0.0000
    767 H          -4.5009   -7.1507  153.1275 H       127      M_A    0.0000
    768 H          -3.1120   -8.1789  152.7930 H       127      M_A    0.0000
    769 C          -3.0892   -7.2906  154.7880 C.3     128      M_A    0.0000
    770 C          -2.9702   -8.7298  155.3012 C.3     128      M_A    0.0000
    771 H          -2.1543   -6.7469  154.9724 H       128      M_A    0.0000
    772 H          -3.8762   -6.7592  155.3373 H       128      M_A    0.0000
    773 H          -3.4666   -8.8242  156.2750 H       128      M_A    0.0000
    774 H          -3.4844   -9.4167  154.6176 H       128      M_A    0.0000
    775 C          -1.4778   -9.1866  155.4484 C.3     129      M_A    0.0000
    776 C          -1.3585  -10.6603  155.8520 C.3     129      M_A    0.0000
    777 H          -0.9597   -9.0140  154.4970 H       129      M_A    0.0000
    778 H          -0.9855   -8.5511  156.1950 H       129      M_A    0.0000
    779 H          -1.4599  -10.7619  156.9396 H       129      M_A    0.0000
    780 H          -2.1749  -11.2403  155.4040 H       129      M_A    0.0000
    781 C           0.0086  -11.2882  155.4112 C.3     130      M_A    0.0000
    782 C           1.0633  -11.2214  156.5211 C.3     130      M_A    0.0000
    783 H          -0.1604  -12.3310  155.1151 H       130      M_A    0.0000
    784 H           0.3680  -10.7616  154.5184 H       130      M_A    0.0000
    785 H           1.4451  -10.1973  156.6161 H       130      M_A    0.0000
    786 H           0.6104  -11.4795  157.4865 H       130      M_A    0.0000
    787 C           2.2688  -12.1873  156.2542 C.3     131      M_A    0.0000
    788 C           3.6145  -11.4540  156.2668 C.3     131      M_A    0.0000
    789 H           2.2639  -12.9776  157.0151 H       131      M_A    0.0000
    790 H           2.1185  -12.6811  155.2861 H       131      M_A    0.0000
    791 H           3.8438  -11.0713  155.2645 H       131      M_A    0.0000
    792 H           3.5622  -10.5832  156.9321 H       131      M_A    0.0000
    793 C           4.7905  -12.3783  156.7359 C.3     132      M_A    0.0000
    794 C           6.0998  -12.0708  156.0010 C.3     132      M_A    0.0000
    795 H           4.9280  -12.2543  157.8172 H       132      M_A    0.0000
    796 H           4.5044  -13.4248  156.5728 H       132      M_A    0.0000
    797 H           6.3358  -12.8798  155.2985 H       132      M_A    0.0000
    798 H           5.9903  -11.1570  155.4038 H       132      M_A    0.0000
    799 C           7.3056  -11.8891  156.9861 C.3     133      M_A    0.0000
    800 C           8.6481  -11.8043  156.2515 C.3     133      M_A    0.0000
    801 H           7.1435  -10.9809  157.5797 H       133      M_A    0.0000
    802 H           7.3153  -12.7291  157.6918 H       133      M_A    0.0000
    803 H           9.4051  -12.3952  156.7819 H       133      M_A    0.0000
    804 H           8.5559  -12.2381  155.2481 H       133      M_A    0.0000
    805 C           9.1605  -10.3287  156.1189 C.3     134      M_A    0.0000
    806 C          10.6888  -10.2362  156.1876 C.3     134      M_A    0.0000
    807 H           8.8008   -9.9135  155.1693 H       134      M_A    0.0000
    808 H           8.7109   -9.7252  156.9171 H       134      M_A    0.0000
    809 H          11.0989  -11.1342  156.6662 H       134      M_A    0.0000
    810 H          11.1093  -10.1991  155.1750 H       134      M_A    0.0000
    811 C          11.1726   -8.9744  156.9822 C.3     135      M_A    0.0000
    812 C          11.9914   -8.0171  156.1094 C.3     135      M_A    0.0000
    813 H          10.2960   -8.4555  157.3895 H       135      M_A    0.0000
    814 H          11.7701   -9.3049  157.8408 H       135      M_A    0.0000
    815 H          12.6500   -8.5866  155.4419 H       135      M_A    0.0000
    816 H          11.3239   -7.4295  155.4670 H       135      M_A    0.0000
    817 C          12.8649   -7.0345  156.9633 C.3     136      M_A    0.0000
    818 C          12.5865   -5.5659  156.6246 C.3     136      M_A    0.0000
    819 H          12.6678   -7.2193  158.0266 H       136      M_A    0.0000
    820 H          13.9240   -7.2652  156.7946 H       136      M_A    0.0000
    821 H          12.7480   -5.3897  155.5539 H       136      M_A    0.0000
    822 H          11.5357   -5.3256  156.8284 H       136      M_A    0.0000
    823 C          13.4968   -4.5850  157.4411 C.3     137      M_A    0.0000
    824 C          12.7064   -3.4083  158.0238 C.3     137      M_A    0.0000
    825 H          13.9863   -5.1453  158.2473 H       137      M_A    0.0000
    826 H          14.2945   -4.2145  156.7855 H       137      M_A    0.0000
    827 H          11.6392   -3.6585  158.0710 H       137      M_A    0.0000
    828 H          13.0295   -3.2112  159.0536 H       137      M_A    0.0000
    829 C          12.8816   -2.0989  157.1799 C.3     138      M_A    0.0000
    830 C          13.3526   -0.9163  158.0336 C.3     138      M_A    0.0000
    831 H          13.6008   -2.2911  156.3741 H       138      M_A    0.0000
    832 H          11.9258   -1.8581  156.6983 H       138      M_A    0.0000
    833 H          14.3684   -1.1010  158.4043 H       138      M_A    0.0000
    834 H          13.4008   -0.0067  157.4223 H       138      M_A    0.0000
    835 C          12.4083   -0.6534  159.2570 C.3     139      M_A    0.0000
    836 C          13.1905   -0.3838  160.5471 C.3     139      M_A    0.0000
    837 H          11.7589    0.1999  159.0255 H       139      M_A    0.0000
    838 H          11.7515   -1.5221  159.3898 H       139      M_A    0.0000
    839 H          13.4997   -1.3317  161.0046 H       139      M_A    0.0000
    840 H          14.1093    0.1714  160.3209 H       139      M_A    0.0000
    841 C          12.3518    0.4312  161.5911 C.3     140      M_A    0.0000
    842 C          11.9295   -0.4235  162.7912 C.3     140      M_A    0.0000
    843 H          12.9463    1.2885  161.9304 H       140      M_A    0.0000
    844 H          11.4657    0.8407  161.0905 H       140      M_A    0.0000
    845 H          11.7400   -1.4552  162.4702 H       140      M_A    0.0000
    846 H          12.7422   -0.4666  163.5268 H       140      M_A    0.0000
    847 C          10.6421    0.1319  163.4924 C.3     141      M_A    0.0000
    848 C           9.6086   -0.9668  163.7639 C.3     141      M_A    0.0000
    849 H          10.9327    0.6158  164.4332 H       141      M_A    0.0000
    850 H          10.2033    0.9128  162.8589 H       141      M_A    0.0000
    851 H           9.6562   -1.7306  162.9778 H       141      M_A    0.0000
    852 H           9.8379   -1.4734  164.7096 H       141      M_A    0.0000
    853 C           8.1473   -0.4038  163.8336 C.3     142      M_A    0.0000
    854 C           7.1054   -1.5132  164.0145 C.3     142      M_A    0.0000
    855 H           8.0830    0.3114  164.6630 H       142      M_A    0.0000
    856 H           7.9412    0.1596  162.9151 H       142      M_A    0.0000
    857 H           7.0499   -2.1286  163.1080 H       142      M_A    0.0000
    858 H           7.4054   -2.1815  164.8311 H       142      M_A    0.0000
    859 C           5.6787   -0.9433  164.3264 C.3     143      M_A    0.0000
    860 C           4.5625   -1.8797  163.8508 C.3     143      M_A    0.0000
    861 H           5.5936   -0.7750  165.4071 H       143      M_A    0.0000
    862 H           5.5770    0.0377  163.8458 H       143      M_A    0.0000
    863 H           4.5358   -1.9067  162.7544 H       143      M_A    0.0000
    864 H           4.7629   -2.9047  164.1864 H       143      M_A    0.0000
    865 C           3.1535   -1.4412  164.3799 C.3     144      M_A    0.0000
    866 C           2.1740   -2.6168  164.4670 C.3     144      M_A    0.0000
    867 H           3.2747   -0.9787  165.3672 H       144      M_A    0.0000
    868 H           2.7521   -0.6656  163.7159 H       144      M_A    0.0000
    869 H           1.9529   -2.9974  163.4621 H       144      M_A    0.0000
    870 H           2.6290   -3.4450  165.0244 H       144      M_A    0.0000
    871 C           0.8276   -2.2180  165.1639 C.3     145      M_A    0.0000
    872 C           0.5402   -3.0720  166.4038 C.3     145      M_A    0.0000
    873 H           0.8730   -1.1573  165.4400 H       145      M_A    0.0000
    874 H           0.0105   -2.3203  164.4391 H       145      M_A    0.0000
    875 H          -0.5188   -3.3573  166.4267 H       145      M_A    0.0000
    876 H           1.1168   -4.0043  166.3603 H       145      M_A    0.0000
    877 C           0.8907   -2.3227  167.7354 C.3     146      M_A    0.0000
    878 C          -0.3092   -2.2337  168.6849 C.3     146      M_A    0.0000
    879 H           1.7212   -2.8446  168.2267 H       146      M_A    0.0000
    880 H           1.2519   -1.3162  167.4903 H       146      M_A    0.0000
    881 H          -1.0800   -1.5810  168.2567 H       146      M_A    0.0000
    882 H          -0.7666   -3.2233  168.8069 H       146      M_A    0.0000
    883 C           0.0906   -1.6841  170.0975 C.3     147      M_A    0.0000
    884 C          -0.8820   -0.6115  170.6001 C.3     147      M_A    0.0000
    885 H           0.1259   -2.5213  170.8056 H       147      M_A    0.0000
    886 H           1.1069   -1.2745  170.0430 H       147      M_A    0.0000
    887 H          -1.1165    0.0921  169.7917 H       147      M_A    0.0000
    888 H          -1.8305   -1.0744  170.8997 H       147      M_A    0.0000
    889 C          -0.3048    0.1908  171.8168 C.3     148      M_A    0.0000
    890 C          -1.1788    0.0563  173.0686 C.3     148      M_A    0.0000
    891 H           0.7107   -0.1673  172.0268 H       148      M_A    0.0000
    892 H          -0.2140    1.2467  171.5331 H       148      M_A    0.0000
    893 H          -1.8593    0.9133  173.1461 H       148      M_A    0.0000
    894 H          -1.8076   -0.8395  172.9938 H       148      M_A    0.0000
    895 C          -0.3267   -0.0326  174.3814 C.3     149      M_A    0.0000
    896 C          -1.1889    0.0881  175.6428 C.3     149      M_A    0.0000
    897 H           0.2162   -0.9859  174.3867 H       149      M_A    0.0000
    898 H           0.4305    0.7611  174.3660 H       149      M_A    0.0000
    899 H          -1.5209    1.1255  175.7737 H       149      M_A    0.0000
    900 H          -2.0949   -0.5218  175.5389 H       149      M_A    0.0000
    901 C          -0.4211   -0.3633  176.9328 C.3     150      M_A    0.0000
    902 C          -0.8683    0.4128  178.1765 C.3     150      M_A    0.0000
    903 H          -0.5819   -1.4382  177.0821 H       150      M_A    0.0000
    904 H           0.6551   -0.2254  176.7701 H       150      M_A    0.0000
    905 H          -0.9130    1.4861  177.9542 H       150      M_A    0.0000
    906 H          -1.8819    0.1084  178.4654 H       150      M_A    0.0000
    907 C           0.0930    0.1885  179.3942 C.3     151      M_A    0.0000
    908 C          -0.6364    0.2971  180.7378 C.3     151      M_A    0.0000
    909 H           0.5602   -0.7995  179.2987 H       151      M_A    0.0000
    910 H           0.9035    0.9263  179.3455 H       151      M_A    0.0000
    911 H          -1.1254    1.2755  180.8223 H       151      M_A    0.0000
    912 H          -1.4302   -0.4579  180.7970 H       151      M_A    0.0000
    913 C           0.3317    0.1091  181.9563 C.3     152      M_A    0.0000
    914 C          -0.4128    0.1155  183.2960 C.3     152      M_A    0.0000
    915 H           0.8760   -0.8354  181.8330 H       152      M_A    0.0000
    916 H           1.0817    0.9095  181.9389 H       152      M_A    0.0000
    917 H          -0.8512    1.1046  183.4779 H       152      M_A    0.0000
    918 H          -1.2457   -0.5978  183.2670 H       152      M_A    0.0000
    919 C           0.5243   -0.2506  184.4982 C.3     153      M_A    0.0000
    920 C          -0.1412    0.0106  185.8539 C.3     153      M_A    0.0000
    921 H           0.8086   -1.3070  184.4160 H       153      M_A    0.0000
    922 H           1.4501    0.3322  184.4151 H       153      M_A    0.0000
    923 H          -0.5051    1.0444  185.9014 H       153      M_A    0.0000
    924 H          -1.0179   -0.6379  185.9737 H       153      M_A    0.0000
    925 C           0.8374   -0.2361  187.0535 C.3     154      M_A    0.0000
    926 C           0.1542   -0.0369  188.4109 C.3     154      M_A    0.0000
    927 H           1.2375   -1.2550  186.9796 H       154      M_A    0.0000
    928 H           1.6918    0.4455  186.9587 H       154      M_A    0.0000
    929 H          -0.2530    0.9793  188.4815 H       154      M_A    0.0000
    930 H          -0.6952   -0.7242  188.5089 H       154      M_A    0.0000
    931 C           1.1358   -0.2724  189.6103 C.3     155      M_A    0.0000
    932 C           0.4453   -0.1022  190.9680 C.3     155      M_A    0.0000
    933 H           1.5596   -1.2809  189.5276 H       155      M_A    0.0000
    934 H           1.9743    0.4297  189.5241 H       155      M_A    0.0000
    935 H           0.0817    0.9269  191.0787 H       155      M_A    0.0000
    936 H          -0.4343   -0.7551  191.0271 H       155      M_A    0.0000
    937 C           1.4010   -0.4321  192.1660 C.3     156      M_A    0.0000
    938 C           0.7199   -0.2322  193.5244 C.3     156      M_A    0.0000
    939 H           1.7468   -1.4685  192.0675 H       156      M_A    0.0000
    940 H           2.2911    0.2052  192.0942 H       156      M_A    0.0000
    941 H           0.2800    0.7712  193.5807 H       156      M_A    0.0000
    942 H          -0.1060   -0.9451  193.6396 H       156      M_A    0.0000
    943 C           1.7158   -0.4152  194.7211 C.3     157      M_A    0.0000
    944 C           1.0307   -0.2335  196.0800 C.3     157      M_A    0.0000
    945 H           2.1658   -1.4137  194.6571 H       157      M_A    0.0000
    946 H           2.5347    0.3068  194.6131 H       157      M_A    0.0000
    947 H           1.7167   -0.5169  196.8879 H       157      M_A    0.0000
    948 H           0.7792    0.8228  196.2362 H       157      M_A    0.0000
    949 C          -0.2775   -1.0883  196.2048 C.3     158      M_A    0.0000
    950 C          -0.9492   -0.9257  197.5727 C.3     158      M_A    0.0000
    951 H          -0.9707   -0.7922  195.4077 H       158      M_A    0.0000
    952 H          -0.0290   -2.1425  196.0306 H       158      M_A    0.0000
    953 H          -1.9825   -0.5795  197.4456 H       158      M_A    0.0000
    954 H          -1.0024   -1.8952  198.0833 H       158      M_A    0.0000
    955 C          -0.1861    0.0886  198.4926 C.3     159      M_A    0.0000
    956 C          -0.6552    0.0177  199.9500 C.3     159      M_A    0.0000
    957 H           0.8893   -0.1200  198.4330 H       159      M_A    0.0000
    958 H          -0.3326    1.1022  198.0992 H       159      M_A    0.0000
    959 H          -1.6703    0.4243  200.0386 H       159      M_A    0.0000
    960 H          -0.7049   -1.0278  200.2787 H       159      M_A    0.0000
    961 C           0.2918    0.8073  200.9181 C.3     160      M_A    0.0000
    962 C           0.4368    0.1178  202.2791 C.3     160      M_A    0.0000
    963 H           1.2750    0.9125  200.4430 H       160      M_A    0.0000
    964 H          -0.1043    1.8218  201.0506 H       160      M_A    0.0000
    965 H           0.2504    0.8365  203.0867 H       160      M_A    0.0000
    966 H          -0.3158   -0.6738  202.3819 H       160      M_A    0.0000
    967 C           1.8598   -0.5089  202.4790 C.3     161      M_A    0.0000
    968 C           1.7927   -1.9885  202.8730 C.3     161      M_A    0.0000
    969 H           2.4311   -0.3926  201.5497 H       161      M_A    0.0000
    970 H           2.3924    0.0619  203.2498 H       161      M_A    0.0000
    971 H           1.2214   -2.1048  203.8023 H       161      M_A    0.0000
    972 H           1.2600   -2.5593  202.1022 H       161      M_A    0.0000
    973 H           2.7821   -2.4243  203.0120 H       161      M_A    0.0000
    974 H          -0.7202    1.2287  -20.4349 H         0      M_A    0.0000
@<TRIPOS>BOND
     1     1     2      1
     2     1     3      1
     3     1     4      1
     4     1   974      1
     5     2     5      1
     6     2     6      1
     7     2     7      1
     8     7     8      1
     9     7     9      1
    10     7    10      1
    11     8    11      1
    12     8    12      1
    13     8    13      1
    14    13    14      1
    15    13    15      1
    16    13    16      1
    17    14    17      1
    18    14    18      1
    19    14    19      1
    20    19    20      1
    21    19    21      1
    22    19    22      1
    23    20    23      1
    24    20    24      1
    25    20    25      1
    26    25    26      1
    27    25    27      1
    28    25    28      1
    29    26    29      1
    30    26    30      1
    31    26    31      1
    32    31    32      1
    33    31    33      1
    34    31    34      1
    35    32    35      1
    36    32    36      1
    37    32    37      1
    38    37    38      1
    39    37    39      1
    40    37    40      1
    41    38    41      1
    42    38    42      1
    43    38    43      1
    44    43    44      1
    45    43    45      1
    46    43    46      1
    47    44    47      1
    48    44    48      1
    49    44    49      1
    50    49    50      1
    51    49    51      1
    52    49    52      1
    53    50    53      1
    54    50    54      1
    55    50    55      1
    56    55    56      1
    57    55    57      1
    58    55    58      1
    59    56    59      1
    60    56    60      1
    61    56    61      1
    62    61    62      1
    63    61    63      1
    64    61    64      1
    65    62    65      1
    66    62    66      1
    67    62    67      1
    68    67    68      1
    69    67    69      1
    70    67    70      1
    71    68    71      1
    72    68    72      1
    73    68    73      1
    74    73    74      1
    75    73    75      1
    76    73    76      1
    77    74    77      1
    78    74    78      1
    79    74    79      1
    80    79    80      1
    81    79    81      1
    82    79    82      1
    83    80    83      1
    84    80    84      1
    85    80    85      1
    86    85    86      1
    87    85    87      1
    88    85    88      1
    89    86    89      1
    90    86    90      1
    91    86    91      1
    92    91    92      1
    93    91    93      1
    94    91    94      1
    95    92    95      1
    96    92    96      1
    97    92    97      1
    98    97    98      1
    99    97    99      1
   100    97   100      1
   101    98   101      1
   102    98   102      1
   103    98   103      1
   104   103   104      1
   105   103   105      1
   106   103   106      1
   107   104   107      1
   108   104   108      1
   109   104   109      1
   110   109   110      1
   111   109   111      1
   112   109   112      1
   113   110   113      1
   114   110   114      1
   115   110   115      1
   116   115   116      1
   117   115   117      1
   118   115   118      1
   119   116   119      1
   120   116   120      1
   121   116   121      1
   122   121   122      1
   123   121   123      1
   124   121   124      1
   125   122   125      1
   126   122   126      1
   127   122   127      1
   128   127   128      1
   129   127   129      1
   130   127   130      1
   131   128   131      1
   132   128   132      1
   133   128   133      1
   134   133   134      1
   135   133   135      1
   136   133   136      1
   137   134   137      1
   138   134   138      1
   139   134   139      1
   140   139   140      1
   141   139   141      1
   142   139   142      1
   143   140   143      1
   144   140   144      1
   145   140   145      1
   146   145   146      1
   147   145   147      1
   148   145   148      1
   149   146   149      1
   150   146   150      1
   151   146   151      1
   152   151   152      1
   153   151   153      1
   154   151   154      1
   155   152   155      1
   156   152   156      1
   157   152   157      1
   158   157   158      1
   159   157   159      1
   160   157   160      1
   161   158   161      1
   162   158   162      1
   163   158   163      1
   164   163   164      1
   165   163   165      1
   166   163   166      1
   167   164   167      1
   168   164   168      1
   169   164   169      1
   170   169   170      1
   171   169   171      1
   172   169   172      1
   173   170   173      1
   174   170   174      1
   175   170   175      1
   176   175   176      1
   177   175   177      1
   178   175   178      1
   179   176   179      1
   180   176   180      1
   181   176   181      1
   182   181   182      1
   183   181   183      1
   184   181   184      1
   185   182   185      1
   186   182   186      1
   187   182   187      1
   188   187   188      1
   189   187   189      1
   190   187   190      1
   191   188   191      1
   192   188   192      1
   193   188   193      1
   194   193   194      1
   195   193   195      1
   196   193   196      1
   197   194   197      1
   198   194   198      1
   199   194   199      1
   200   199   200      1
   201   199   201      1
   202   199   202      1
   203   200   203      1
   204   200   204      1
   205   200   205      1
   206   205   206      1
   207   205   207      1
   208   205   208      1
   209   206   209      1
   210   206   210      1
   211   206   211      1
   212   211   212      1
   213   211   213      1
   214   211   214      1
   215   212   215      1
   216   212   216      1
   217   212   217      1
   218   217   218      1
   219   217   219      1
   220   217   220      1
   221   218   221      1
   222   218   222      1
   223   218   223      1
   224   223   224      1
   225   223   225      1
   226   223   226      1
   227   224   227      1
   228   224   228      1
   229   224   229      1
   230   229   230      1
   231   229   231      1
   232   229   232      1
   233   230   233      1
   234   230   234      1
   235   230   235      1
   236   235   236      1
   237   235   237      1
   238   235   238      1
   239   236   239      1
   240   236   240      1
   241   236   241      1
   242   241   242      1
   243   241   243      1
   244   241   244      1
   245   242   245      1
   246   242   246      1
   247   242   247      1
   248   247   248      1
   249   247   249      1
   250   247   250      1
   251   248   251      1
   252   248   252      1
   253   248   253      1
   254   253   254      1
   255   253   255      1
   256   253   256      1
   257   254   257      1
   258   254   258      1
   259   254   259      1
   260   259   260      1
   261   259   261      1
   262   259   262      1
   263   260   263      1
   264   260   264      1
   265   260   265      1
   266   265   266      1
   267   265   267      1
   268   265   268      1
   269   266   269      1
   270   266   270      1
   271   266   271      1
   272   271   272      1
   273   271   273      1
   274   271   274      1
   275   272   275      1
   276   272   276      1
   277   272   277      1
   278   277   278      1
   279   277   279      1
   280   277   280      1
   281   278   281      1
   282   278   282      1
   283   278   283      1
   284   283   284      1
   285   283   285      1
   286   283   286      1
   287   284   287      1
   288   284   288      1
   289   284   289      1
   290   289   290      1
   291   289   291      1
   292   289   292      1
   293   290   293      1
   294   290   294      1
   295   290   295      1
   296   295   296      1
   297   295   297      1
   298   295   298      1
   299   296   299      1
   300   296   300      1
   301   296   301      1
   302   301   302      1
   303   301   303      1
   304   301   304      1
   305   302   305      1
   306   302   306      1
   307   302   307      1
   308   307   308      1
   309   307   309      1
   310   307   310      1
   311   308   311      1
   312   308   312      1
   313   308   313      1
   314   313   314      1
   315   313   315      1
   316   313   316      1
   317   314   317      1
   318   314   318      1
   319   314   319      1
   320   319   320      1
   321   319   321      1
   322   319   322      1
   323   320   323      1
   324   320   324      1
   325   320   325      1
   326   325   326      1
   327   325   327      1
   328   325   328      1
   329   326   329      1
   330   326   330      1
   331   326   331      1
   332   331   332      1
   333   331   333      1
   334   331   334      1
   335   332   335      1
   336   332   336      1
   337   332   337      1
   338   337   338      1
   339   337   339      1
   340   337   340      1
   341   338   341      1
   342   338   342      1
   343   338   343      1
   344   343   344      1
   345   343   345      1
   346   343   346      1
   347   344   347      1
   348   344   348      1
   349   344   349      1
   350   349   350      1
   351   349   351      1
   352   349   352      1
   353   350   353      1
   354   350   354      1
   355   350   355      1
   356   355   356      1
   357   355   357      1
   358   355   358      1
   359   356   359      1
   360   356   360      1
   361   356   361      1
   362   361   362      1
   363   361   363      1
   364   361   364      1
   365   362   365      1
   366   362   366      1
   367   362   367      1
   368   367   368      1
   369   367   369      1
   370   367   370      1
   371   368   371      1
   372   368   372      1
   373   368   373      1
   374   373   374      1
   375   373   375      1
   376   373   376      1
   377   374   377      1
   378   374   378      1
   379   374   379      1
   380   379   380      1
   381   379   381      1
   382   379   382      1
   383   380   383      1
   384   380   384      1
   385   380   385      1
   386   385   386      1
   387   385   387      1
   388   385   388      1
   389   386   389      1
   390   386   390      1
   391   386   391      1
   392   391   392      1
   393   391   393      1
   394   391   394      1
   395   392   395      1
   396   392   396      1
   397   392   397      1
   398   397   398      1
   399   397   399      1
   400   397   400      1
   401   398   401      1
   402   398   402      1
   403   398   403      1
   404   403   404      1
   405   403   405      1
   406   403   406      1
   407   404   407      1
   408   404   408      1
   409   404   409      1
   410   409   410      1
   411   409   411      1
   412   409   412      1
   413   410   413      1
   414   410   414      1
   415   410   415      1
   416   415   416      1
   417   415   417      1
   418   415   418      1
   419   416   419      1
   420   416   420      1
   421   416   421      1
   422   421   422      1
   423   421   423      1
   424   421   424      1
   425   422   425      1
   426   422   426      1
   427   422   427      1
   428   427   428      1
   429   427   429      1
   430   427   430      1
   431   428   431      1
   432   428   432      1
   433   428   433      1
   434   433   434      1
   435   433   435      1
   436   433   436      1
   437   434   437      1
   438   434   438      1
   439   434   439      1
   440   439   440      1
   441   439   441      1
   442   439   442      1
   443   440   443      1
   444   440   444      1
   445   440   445      1
   446   445   446      1
   447   445   447      1
   448   445   448      1
   449   446   449      1
   450   446   450      1
   451   446   451      1
   452   451   452      1
   453   451   453      1
   454   451   454      1
   455   452   455      1
   456   452   456      1
   457   452   457      1
   458   457   458      1
   459   457   459      1
   460   457   460      1
   461   458   461      1
   462   458   462      1
   463   458   463      1
   464   463   464      1
   465   463   465      1
   466   463   466      1
   467   464   467      1
   468   464   468      1
   469   464   469      1
   470   469   470      1
   471   469   471      1
   472   469   472      1
   473   470   473      1
   474   470   474      1
   475   470   475      1
   476   475   476      1
   477   475   477      1
   478   475   478      1
   479   476   479      1
   480   476   480      1
   481   476   481      1
   482   481   482      1
   483   481   483      1
   484   481   484      1
   485   482   485      1
   486   482   486      1
   487   482   487      1
   488   487   488      1
   489   487   489      1
   490   487   490      1
   491   488   491      1
   492   488   492      1
   493   488   493      1
   494   493   494      1
   495   493   495      1
   496   493   496      1
   497   494   497      1
   498   494   498      1
   499   494   499      1
   500   499   500      1
   501   499   501      1
   502   499   502      1
   503   500   503      1
   504   500   504      1
   505   500   505      1
   506   505   506      1
   507   505   507      1
   508   505   508      1
   509   506   509      1
   510   506   510      1
   511   506   511      1
   512   511   512      1
   513   511   513      1
   514   511   514      1
   515   512   515      1
   516   512   516      1
   517   512   517      1
   518   517   518      1
   519   517   519      1
   520   517   520      1
   521   518   521      1
   522   518   522      1
   523   518   523      1
   524   523   524      1
   525   523   525      1
   526   523   526      1
   527   524   527      1
   528   524   528      1
   529   524   529      1
   530   529   530      1
   531   529   531      1
   532   529   532      1
   533   530   533      1
   534   530   534      1
   535   530   535      1
   536   535   536      1
   537   535   537      1
   538   535   538      1
   539   536   539      1
   540   536   540      1
   541   536   541      1
   542   541   542      1
   543   541   543      1
   544   541   544      1
   545   542   545      1
   546   542   546      1
   547   542   547      1
   548   547   548      1
   549   547   549      1
   550   547   550      1
   551   548   551      1
   552   548   552      1
   553   548   553      1
   554   553   554      1
   555   553   555      1
   556   553   556      1
   557   554   557      1
   558   554   558      1
   559   554   559      1
   560   559   560      1
   561   559   561      1
   562   559   562      1
   563   560   563      1
   564   560   564      1
   565   560   565      1
   566   565   566      1
   567   565   567      1
   568   565   568      1
   569   566   569      1
   570   566   570      1
   571   566   571      1
   572   571   572      1
   573   571   573      1
   574   571   574      1
   575   572   575      1
   576   572   576      1
   577   572   577      1
   578   577   578      1
   579   577   579      1
   580   577   580      1
   581   578   581      1
   582   578   582      1
   583   578   583      1
   584   583   584      1
   585   583   585      1
   586   583   586      1
   587   584   587      1
   588   584   588      1
   589   584   589      1
   590   589   590      1
   591   589   591      1
   592   589   592      1
   593   590   593      1
   594   590   594      1
   595   590   595      1
   596   595   596      1
   597   595   597      1
   598   595   598      1
   599   596   599      1
   600   596   600      1
   601   596   601      1
   602   601   602      1
   603   601   603      1
   604   601   604      1
   605   602   605      1
   606   602   606      1
   607   602   607      1
   608   607   608      1
   609   607   609      1
   610   607   610      1
   611   608   611      1
   612   608   612      1
   613   608   613      1
   614   613   614      1
   615   613   615      1
   616   613   616      1
   617   614   617      1
   618   614   618      1
   619   614   619      1
   620   619   620      1
   621   619   621      1
   622   619   622      1
   623   620   623      1
   624   620   624      1
   625   620   625      1
   626   625   626      1
   627   625   627      1
   628   625   628      1
   629   626   629      1
   630   626   630      1
   631   626   631      1
   632   631   632      1
   633   631   633      1
   634   631   634      1
   635   632   635      1
   636   632   636      1
   637   632   637      1
   638   637   638      1
   639   637   639      1
   640   637   640      1
   641   638   641      1
   642   638   642      1
   643   638   643      1
   644   643   644      1
   645   643   645      1
   646   643   646      1
   647   644   647      1
   648   644   648      1
   649   644   649      1
   650   649   650      1
   651   649   651      1
   652   649   652      1
   653   650   653      1
   654   650   654      1
   655   650   655      1
   656   655   656      1
   657   655   657      1
   658   655   658      1
   659   656   659      1
   660   656   660      1
   661   656   661      1
   662   661   662      1
   663   661   663      1
   664   661   664      1
   665   662   665      1
   666   662   666      1
   667   662   667      1
   668   667   668      1
   669   667   669      1
   670   667   670      1
   671   668   671      1
   672   668   672      1
   673   668   673      1
   674   673   674      1
   675   673   675      1
   676   673   676      1
   677   674   677      1
   678   674   678      1
   679   674   679      1
   680   679   680      1
   681   679   681      1
   682   679   682      1
   683   680   683      1
   684   680   684      1
   685   680   685      1
   686   685   686      1
   687   685   687      1
   688   685   688      1
   689   686   689      1
   690   686   690      1
   691   686   691      1
   692   691   692      1
   693   691   693      1
   694   691   694      1
   695   692   695      1
   696   692   696      1
   697   692   697      1
   698   697   698      1
   699   697   699      1
   700   697   700      1
   701   698   701      1
   702   698   702      1
   703   698   703      1
   704   703   704      1
   705   703   705      1
   706   703   706      1
   707   704   707      1
   708   704   708      1
   709   704   709      1
   710   709   710      1
   711   709   711      1
   712   709   712      1
   713   710   713      1
   714   710   714      1
   715   710   715      1
   716   715   716      1
   717   715   717      1
   718   715   718      1
   719   716   719      1
   720   716   720      1
   721   716   721      1
   722   721   722      1
   723   721   723      1
   724   721   724      1
   725   722   725      1
   726   722   726      1
   727   722   727      1
   728   727   728      1
   729   727   729      1
   730   727   730      1
   731   728   731      1
   732   728   732      1
   733   728   733      1
   734   733   734      1
   735   733   735      1
   736   733   736      1
   737   734   737      1
   738   734   738      1
   739   734   739      1
   740   739   740      1
   741   739   741      1
   742   739   742      1
   743   740   743      1
   744   740   744      1
   745   740   745      1
   746   745   746      1
   747   745   747      1
   748   745   748      1
   749   746   749      1
   750   746   750      1
   751   746   751      1
   752   751   752      1
   753   751   753      1
   754   751   754      1
   755   752   755      1
   756   752   756      1
   757   752   757      1
   758   757   758      1
   759   757   759      1
   760   757   760      1
   761   758   761      1
   762   758   762      1
   763   758   763      1
   764   763   764      1
   765   763   765      1
   766   763   766      1
   767   764   767      1
   768   764   768      1
   769   764   769      1
   770   769   770      1
   771   769   771      1
   772   769   772      1
   773   770   773      1
   774   770   774      1
   775   770   775      1
   776   775   776      1
   777   775   777      1
   778   775   778      1
   779   776   779      1
   780   776   780      1
   781   776   781      1
   782   781   782      1
   783   781   783      1
   784   781   784      1
   785   782   785      1
   786   782   786      1
   787   782   787      1
   788   787   788      1
   789   787   789      1
   790   787   790      1
   791   788   791      1
   792   788   792      1
   793   788   793      1
   794   793   794      1
   795   793   795      1
   796   793   796      1
   797   794   797      1
   798   794   798      1
   799   794   799      1
   800   799   800      1
   801   799   801      1
   802   799   802      1
   803   800   803      1
   804   800   804      1
   805   800   805      1
   806   805   806      1
   807   805   807      1
   808   805   808      1
   809   806   809      1
   810   806   810      1
   811   806   811      1
   812   811   812      1
   813   811   813      1
   814   811   814      1
   815   812   815      1
   816   812   816      1
   817   812   817      1
   818   817   818      1
   819   817   819      1
   820   817   820      1
   821   818   821      1
   822   818   822      1
   823   818   823      1
   824   823   824      1
   825   823   825      1
   826   823   826      1
   827   824   827      1
   828   824   828      1
   829   824   829      1
   830   829   830      1
   831   829   831      1
   832   829   832      1
   833   830   833      1
   834   830   834      1
   835   830   835      1
   836   835   836      1
   837   835   837      1
   838   835   838      1
   839   836   839      1
   840   836   840      1
   841   836   841      1
   842   841   842      1
   843   841   843      1
   844   841   844      1
   845   842   845      1
   846   842   846      1
   847   842   847      1
   848   847   848      1
   849   847   849      1
   850   847   850      1
   851   848   851      1
   852   848   852      1
   853   848   853      1
   854   853   854      1
   855   853   855      1
   856   853   856      1
   857   854   857      1
   858   854   858      1
   859   854   859      1
   860   859   860      1
   861   859   861      1
   862   859   862      1
   863   860   863      1
   864   860   864      1
   865   860   865      1
   866   865   866      1
   867   865   867      1
   868   865   868      1
   869   866   869      1
   870   866   870      1
   871   866   871      1
   872   871   872      1
   873   871   873      1
   874   871   874      1
   875   872   875      1
   876   872   876      1
   877   872   877      1
   878   877   878      1
   879   877   879      1
   880   877   880      1
   881   878   881      1
   882   878   882      1
   883   878   883      1
   884   883   884      1
   885   883   885      1
   886   883   886      1
   887   884   887      1
   888   884   888      1
   889   884   889      1
   890   889   890      1
   891   889   891      1
   892   889   892      1
   893   890   893      1
   894   890   894      1
   895   890   895      1
   896   895   896      1
   897   895   897      1
   898   895   898      1
   899   896   899      1
   900   896   900      1
   901   896   901      1
   902   901   902      1
   903   901   903      1
   904   901   904      1
   905   902   905      1
   906   902   906      1
   907   902   907      1
   908   907   908      1
   909   907   909      1
   910   907   910      1
   911   908   911      1
   912   908   912      1
   913   908   913      1
   914   913   914      1
   915   913   915      1
   916   913   916      1
   917   914   917      1
   918   914   918      1
   919   914   919      1
   920   919   920      1
   921   919   921      1
   922   919   922      1
   923   920   923      1
   924   920   924      1
   925   920   925      1
   926   925   926      1
   927   925   927      1
   928   925   928      1
   929   926   929      1
   930   926   930      1
   931   926   931      1
   932   931   932      1
   933   931   933      1
   934   931   934      1
   935   932   935      1
   936   932   936      1
   937   932   937      1
   938   937   938      1
   939   937   939      1
   940   937   940      1
   941   938   941      1
   942   938   942      1
   943   938   943      1
   944   943   944      1
   945   943   945      1
   946   943   946      1
   947   944   947      1
   948   944   948      1
   949   944   949      1
   950   949   950      1
   951   949   951      1
   952   949   952      1
   953   950   953      1
   954   950   954      1
   955   950   955      1
   956   955   956      1
   957   955   957      1
   958   955   958      1
   959   956   959      1
   960   956   960      1
   961   956   961      1
   962   961   962      1
   963   961   963      1
   964   961   964      1
   965   962   965      1
   966   962   966      1
   967   962   967      1
   968   967   968      1
   969   967   969      1
   970   967   970      1
   971   968   971      1
   972   968   972      1
   973   968   973      1
