@<TRIPOS>MOLECULE
generated by VMD
  280  378    1    0    0
SMALL
USER_CHARGES
****
Energy = 0

@<TRIPOS>ATOM
      1  C         -1.9775    0.8603  160.0000 C.ar    1  ****        0.000000
      2  C         -1.3052   -0.3083  160.0000 C.ar    1  ****        0.000000
      3  C          0.0451   -0.3022  160.0000 C.ar    1  ****        0.000000
      4  C          0.7295    0.8626  160.0000 C.ar    1  ****        0.000000
      5  C          0.0597    2.0318  160.0000 C.ar    1  ****        0.000000
      6  C         -1.2905    2.0228  160.0000 C.ar    1  ****        0.000000
      7  C          0.7148   -1.4725  160.0000 C.ar    1  ****        0.000000
      8  C          0.0377   -2.6409  160.0000 C.ar    1  ****        0.000000
      9  C         -1.3125   -2.6407  160.0000 C.ar    1  ****        0.000000
     10  C         -1.9884   -1.4730  160.0000 C.ar    1  ****        0.000000
     11  C          0.7455    3.1956  160.0000 C.ar    1  ****        0.000000
     12  C          2.0950    3.2097  160.0000 C.ar    1  ****        0.000000
     13  C          2.7646    2.0389  160.0000 C.ar    1  ****        0.000000
     14  C          2.0795    0.8735  160.0000 C.ar    1  ****        0.000000
     15  C         -3.3283    0.8575  160.0000 C.ar    1  ****        0.000000
     16  C         -3.9994    2.0269  160.0000 C.ar    1  ****        0.000000
     17  C         -3.3118    3.1880  160.0000 C.ar    1  ****        0.000000
     18  C         -1.9614    3.1910  160.0000 C.ar    1  ****        0.000000
     19  C         -4.0145   -0.3055  160.0000 C.ar    1  ****        0.000000
     20  C         -4.0229   -2.6385  160.0000 C.ar    1  ****        0.000000
     21  C         -3.3415   -3.8041  160.0000 C.ar    1  ****        0.000000
     22  C         -1.9897   -3.8079  160.0000 C.ar    1  ****        0.000000
     23  C          2.0638   -1.4661  160.0000 C.ar    1  ****        0.000000
     24  C          2.7451   -0.2986  160.0000 C.ar    1  ****        0.000000
     25  C          2.7713    4.3803  160.0000 C.ar    1  ****        0.000000
     26  C          2.1156    5.5577  160.0000 C.ar    1  ****        0.000000
     27  C          0.7647    5.5291  160.0000 C.ar    1  ****        0.000000
     28  C          0.0777    4.3653  160.0000 C.ar    1  ****        0.000000
     29  C         -1.2727    4.3519  160.0000 C.ar    1  ****        0.000000
     30  C         -1.9482    5.5163  160.0000 C.ar    1  ****        0.000000
     31  C         -3.2974    5.5157  160.0000 C.ar    1  ****        0.000000
     32  C         -3.9839    4.3560  160.0000 C.ar    1  ****        0.000000
     33  C         -1.2642    6.6775  160.0000 C.ar    1  ****        0.000000
     34  C          0.0855    6.6904  160.0000 C.ar    1  ****        0.000000
     35  C          0.7112   -3.8108  160.0000 C.ar    1  ****        0.000000
     36  C          2.0594   -3.8143  160.0000 C.ar    1  ****        0.000000
     37  C          2.7259   -2.6410  160.0000 C.ar    1  ****        0.000000
     38  C          0.0439   -4.9829  160.0000 C.ar    1  ****        0.000000
     39  C         -1.3067   -4.9732  160.0000 C.ar    1  ****        0.000000
     40  C          4.0943   -0.2890  160.0000 C.ar    1  ****        0.000000
     41  C          4.7442   -1.4700  160.0000 C.ar    1  ****        0.000000
     42  C          4.0719   -2.6402  160.0000 C.ar    1  ****        0.000000
     43  C          4.1153    2.0482  160.0000 C.ar    1  ****        0.000000
     44  C          4.7852    0.8751  160.0000 C.ar    1  ****        0.000000
     45  C          4.1181    4.3949  160.0000 C.ar    1  ****        0.000000
     46  C          4.7887    3.2215  160.0000 C.ar    1  ****        0.000000
     47  C         -5.3500    2.0315  160.0000 C.ar    1  ****        0.000000
     48  C         -6.0180    3.2039  160.0000 C.ar    1  ****        0.000000
     49  C         -5.3332    4.3653  160.0000 C.ar    1  ****        0.000000
     50  C         -5.3660   -0.3038  160.0000 C.ar    1  ****        0.000000
     51  C         -6.0355    0.8684  160.0000 C.ar    1  ****        0.000000
     52  C         -5.3754   -2.6376  160.0000 C.ar    1  ****        0.000000
     53  C         -6.0514   -1.4682  160.0000 C.ar    1  ****        0.000000
     54  C         -6.0014    5.5367  160.0000 C.ar    1  ****        0.000000
     55  C         -5.3183    6.6964  160.0000 C.ar    1  ****        0.000000
     56  C         -3.9700    6.6823  160.0000 C.ar    1  ****        0.000000
     57  C          2.8002    6.7283  160.0000 C.ar    1  ****        0.000000
     58  C          4.1555    6.7756  160.0000 C.ar    1  ****        0.000000
     59  C          4.7804    5.5739  160.0000 C.ar    1  ****        0.000000
     60  C         -4.0209   -4.9699  160.0000 C.ar    1  ****        0.000000
     61  C         -5.3737   -4.9685  160.0000 C.ar    1  ****        0.000000
     62  C         -6.0578   -3.8037  160.0000 C.ar    1  ****        0.000000
     63  C          2.7331   -4.9850  160.0000 C.ar    1  ****        0.000000
     64  C          4.0791   -4.9930  160.0000 C.ar    1  ****        0.000000
     65  C          4.7338   -3.8151  160.0000 C.ar    1  ****        0.000000
     66  C         -7.3674    3.2212  160.0000 C.ar    1  ****        0.000000
     67  C         -8.0281    4.3999  160.0000 C.ar    1  ****        0.000000
     68  C         -7.3491    5.5628  160.0000 C.ar    1  ****        0.000000
     69  C         -7.3862    0.8782  160.0000 C.ar    1  ****        0.000000
     70  C         -8.0489    2.0559  160.0000 C.ar    1  ****        0.000000
     71  C         -7.4040   -1.4646  160.0000 C.ar    1  ****        0.000000
     72  C         -8.0701   -0.2874  160.0000 C.ar    1  ****        0.000000
     73  C         -7.4112   -3.8063  160.0000 C.ar    1  ****        0.000000
     74  C         -8.0852   -2.6340  160.0000 C.ar    1  ****        0.000000
     75  C         -8.0142    6.7380  160.0000 C.ar    1  ****        0.000000
     76  C         -9.3621    6.7796  160.0000 C.ar    1  ****        0.000000
     77  C        -10.0377    5.6178  160.0000 C.ar    1  ****        0.000000
     78  C         -9.3751    4.4372  160.0000 C.ar    1  ****        0.000000
     79  C         -9.3981    2.0784  160.0000 C.ar    1  ****        0.000000
     80  C        -10.0437    3.2674  160.0000 C.ar    1  ****        0.000000
     81  C         -9.4215   -0.2711  160.0000 C.ar    1  ****        0.000000
     82  C        -10.0837    0.9123  160.0000 C.ar    1  ****        0.000000
     83  C         -9.4381   -2.6338  160.0000 C.ar    1  ****        0.000000
     84  C        -10.0920   -1.4470  160.0000 C.ar    1  ****        0.000000
     85  C         -8.0908   -4.9765  160.0000 C.ar    1  ****        0.000000
     86  C         -9.4451   -4.9868  160.0000 C.ar    1  ****        0.000000
     87  C        -10.1175   -3.8090  160.0000 C.ar    1  ****        0.000000
     88  C         -6.0526   -6.1355  160.0000 C.ar    1  ****        0.000000
     89  C         -7.4056   -6.1423  160.0000 C.ar    1  ****        0.000000
     90  C         -1.9803   -6.1408  160.0000 C.ar    1  ****        0.000000
     91  C         -3.3325   -6.1319  160.0000 C.ar    1  ****        0.000000
     92  C          0.7285   -6.1490  160.0000 C.ar    1  ****        0.000000
     93  C          2.0784   -6.1625  160.0000 C.ar    1  ****        0.000000
     94  C          4.7589   -6.1607  160.0000 C.ar    1  ****        0.000000
     95  C          4.1211   -7.3483  160.0000 C.ar    1  ****        0.000000
     96  C          2.7709   -7.3254  160.0000 C.ar    1  ****        0.000000
     97  C          0.0627   -7.3204  160.0000 C.ar    1  ****        0.000000
     98  C         -1.2894   -7.3024  160.0000 C.ar    1  ****        0.000000
     99  C         -5.3631   -7.2965  160.0000 C.ar    1  ****        0.000000
    100  C         -4.0107   -7.2967  160.0000 C.ar    1  ****        0.000000
    101  C        -10.1099   -6.1702  160.0000 C.ar    1  ****        0.000000
    102  C         -9.4265   -7.3402  160.0000 C.ar    1  ****        0.000000
    103  C         -8.0751   -7.3169  160.0000 C.ar    1  ****        0.000000
    104  C         -5.9874    7.8666  160.0000 C.ar    1  ****        0.000000
    105  C         -7.3299    7.8966  160.0000 C.ar    1  ****        0.000000
    106  C         -1.9439    7.8390  160.0000 C.ar    1  ****        0.000000
    107  C         -3.2859    7.8416  160.0000 C.ar    1  ****        0.000000
    108  C          0.7645    7.8558  160.0000 C.ar    1  ****        0.000000
    109  C          2.1091    7.8862  160.0000 C.ar    1  ****        0.000000
    110  C         -1.9670   -8.4663  160.0000 C.ar    1  ****        0.000000
    111  C         -3.3182   -8.4553  160.0000 C.ar    1  ****        0.000000
    112  C         -6.0377   -8.4648  160.0000 C.ar    1  ****        0.000000
    113  C         -7.3895   -8.4801  160.0000 C.ar    1  ****        0.000000
    114  C          2.1112   -8.4983  160.0000 C.ar    1  ****        0.000000
    115  C          0.7559   -8.4831  160.0000 C.ar    1  ****        0.000000
    116  C          4.8241   -8.5099  160.0000 C.ar    1  ****        0.000000
    117  C          6.1779   -8.4870  160.0000 C.ar    1  ****        0.000000
    118  C          6.8060   -7.2990  160.0000 C.ar    1  ****        0.000000
    119  C          6.1037   -6.1508  160.0000 C.ar    1  ****        0.000000
    120  C          6.0772   -3.8163  160.0000 C.ar    1  ****        0.000000
    121  C          6.7567   -4.9769  160.0000 C.ar    1  ****        0.000000
    122  C          6.0891   -1.4762  160.0000 C.ar    1  ****        0.000000
    123  C          6.7472   -2.6516  160.0000 C.ar    1  ****        0.000000
    124  C          6.7759   -0.3168  160.0000 C.ar    1  ****        0.000000
    125  C          6.1386    0.8757  160.0000 C.ar    1  ****        0.000000
    126  C          6.1393    3.2257  160.0000 C.ar    1  ****        0.000000
    127  C          6.8055    2.0551  160.0000 C.ar    1  ****        0.000000
    128  C          6.1200    5.5225  160.0000 C.ar    1  ****        0.000000
    129  C          6.8297    4.3883  160.0000 C.ar    1  ****        0.000000
    130  C          6.9121    6.8374  160.0000 C.ar    1  ****        -1.000000
    131  C          6.1379    8.1562  160.0000 C.ar    1  ****        0.000000
    132  C          4.8045    7.9782  160.0000 C.ar    1  ****        0.000000
    133  C        -10.0744   -8.5311  160.0000 C.ar    1  ****        0.000000
    134  C        -11.4204   -8.5758  160.0000 C.ar    1  ****        0.000000
    135  C        -12.0940   -7.4052  160.0000 C.ar    1  ****        0.000000
    136  C        -11.4640   -6.1974  160.0000 C.ar    1  ****        0.000000
    137  C        -11.4730   -3.8109  160.0000 C.ar    1  ****        0.000000
    138  C        -12.1230   -5.0087  160.0000 C.ar    1  ****        0.000000
    139  C        -11.4411   -1.4280  160.0000 C.ar    1  ****        0.000000
    140  C        -12.1111   -2.6078  160.0000 C.ar    1  ****        0.000000
    141  C        -11.4361    0.9475  160.0000 C.ar    1  ****        0.000000
    142  C        -12.0954   -0.2369  160.0000 C.ar    1  ****        0.000000
    143  C        -11.3875    3.3173  160.0000 C.ar    1  ****        0.000000
    144  C        -12.0653    2.1524  160.0000 C.ar    1  ****        0.000000
    145  C        -11.3836    5.6815  160.0000 C.ar    1  ****        0.000000
    146  C        -12.0367    4.5061  160.0000 C.ar    1  ****        0.000000
    147  C        -10.0341    7.9525  160.0000 C.ar    1  ****        0.000000
    148  C        -11.3768    8.0184  160.0000 C.ar    1  ****        0.000000
    149  C        -12.0609    6.8586  160.0000 C.ar    1  ****        0.000000
    150  C          4.1837   -9.7026  160.0000 C.ar    1  ****        0.000000
    151  C          2.8221   -9.6515  160.0000 C.ar    1  ****        0.000000
    152  C          0.0712   -9.6456  160.0000 C.ar    1  ****        0.000000
    153  C         -1.2786   -9.6276  160.0000 C.ar    1  ****        0.000000
    154  C         -3.9932   -9.6201  160.0000 C.ar    1  ****        0.000000
    155  C         -5.3438   -9.6212  160.0000 C.ar    1  ****        0.000000
    156  C         -8.0565   -9.6557  160.0000 C.ar    1  ****        0.000000
    157  C         -9.4064   -9.7044  160.0000 C.ar    1  ****        0.000000
    158  C        -12.0741   -9.7655  160.0000 C.ar    1  ****        0.000000
    159  C        -11.4187  -10.9450  160.0000 C.ar    1  ****        0.000000
    160  C        -10.0665  -10.8921  160.0000 C.ar    1  ****        0.000000
    161  C         -6.0142  -10.7894  160.0000 C.ar    1  ****        0.000000
    162  C         -7.3625  -10.8091  160.0000 C.ar    1  ****        0.000000
    163  C         -1.9514  -10.7933  160.0000 C.ar    1  ****        0.000000
    164  C         -3.3029  -10.7785  160.0000 C.ar    1  ****        0.000000
    165  C          2.0904  -10.7775  160.0000 C.ar    1  ****        0.000000
    166  C          0.7444  -10.8165  160.0000 C.ar    1  ****        0.000000
    167  C          6.9362   -9.6073  160.0000 C.ar    1  ****        0.000000
    168  C          6.2954  -10.7833  160.0000 C.ar    1  ****        0.000000
    169  C          4.9440  -10.8394  160.0000 C.ar    1  ****        0.000000
    170  C          8.1499   -7.2681  160.0000 C.ar    1  ****        0.000000
    171  C          8.8854   -8.3845  160.0000 C.ar    1  ****        0.000000
    172  C          8.2907   -9.5834  160.0000 C.ar    1  ****        0.000000
    173  C          8.1000   -4.9709  160.0000 C.ar    1  ****        0.000000
    174  C          8.8048   -6.1044  160.0000 C.ar    1  ****        0.000000
    175  C          8.0904   -2.6814  160.0000 C.ar    1  ****        0.000000
    176  C          8.7798   -3.8235  160.0000 C.ar    1  ****        0.000000
    177  C          8.1167   -0.4069  160.0000 C.ar    1  ****        0.000000
    178  C          8.7939   -1.5514  160.0000 C.ar    1  ****        0.000000
    179  C          8.1494    2.1368  160.0000 C.ar    1  ****        0.000000
    180  C          8.9900    0.8519  160.0000 C.ar    1  ****        -1.000000
    181  C          8.1815    4.4559  160.0000 C.ar    1  ****        0.000000
    182  C          8.8311    3.2855  160.0000 C.ar    1  ****        0.000000
    183  C          8.4457    6.8114  160.0000 C.ar    1  ****        0.000000
    184  C          8.9487    5.5699  160.0000 C.ar    1  ****        0.000000
    185  C         -8.0061    9.0578  160.0000 C.ar    1  ****        0.000000
    186  C         -9.3351    9.0924  160.0000 C.ar    1  ****        0.000000
    187  C         -3.9643    8.9977  160.0000 C.ar    1  ****        0.000000
    188  C         -5.2910    9.0110  160.0000 C.ar    1  ****        0.000000
    189  C          0.0667    9.0000  160.0000 C.ar    1  ****        0.000000
    190  C         -1.2601    8.9916  160.0000 C.ar    1  ****        0.000000
    191  C          4.1018    9.1134  160.0000 C.ar    1  ****        0.000000
    192  C          2.7742    9.0558  160.0000 C.ar    1  ****        0.000000
    193  C          7.0430    9.4109  160.0000 C.ar    1  ****        -1.000000
    194  C          8.5694    9.1810  160.0000 C.ar    1  ****        0.000000
    195  C          9.1392    7.9620  160.0000 C.ar    1  ****        0.000000
    196  C         -8.0215  -11.9842  160.0000 C.ar    1  ****        0.000000
    197  C         -9.3602  -12.0409  160.0000 C.ar    1  ****        0.000000
    198  C         -3.9863  -11.9379  160.0000 C.ar    1  ****        0.000000
    199  C         -5.3284  -11.9479  160.0000 C.ar    1  ****        0.000000
    200  C          0.0837  -11.9980  160.0000 C.ar    1  ****        0.000000
    201  C         -1.2653  -11.9573  160.0000 C.ar    1  ****        0.000000
    202  C          4.4009  -12.0755  160.0000 C.ar    1  ****        0.000000
    203  C          2.8619  -12.1067  160.0000 C.ar    1  ****        -1.000000
    204  C          7.1828  -12.0489  160.0000 C.ar    1  ****        -1.000000
    205  C          8.7096  -11.9054  160.0000 C.ar    1  ****        0.000000
    206  C          9.1327  -10.6396  160.0000 C.ar    1  ****        0.000000
    207  C        -12.1486  -12.0913  160.0000 C.ar    1  ****        0.000000
    208  C        -13.4906  -12.0996  160.0000 C.ar    1  ****        0.000000
    209  C        -14.1415  -10.9402  160.0000 C.ar    1  ****        0.000000
    210  C        -13.4211   -9.8116  160.0000 C.ar    1  ****        0.000000
    211  C        -13.4335   -7.5341  160.0000 C.ar    1  ****        0.000000
    212  C        -14.1138   -8.6767  160.0000 C.ar    1  ****        0.000000
    213  C        -13.4694   -5.0339  160.0000 C.ar    1  ****        0.000000
    214  C        -14.3345   -6.2976  160.0000 C.ar    1  ****        -1.000000
    215  C        -13.4566   -2.5250  160.0000 C.ar    1  ****        0.000000
    216  C        -14.3414   -3.7780  160.0000 C.ar    1  ****        -1.000000
    217  C        -13.4429   -0.2470  160.0000 C.ar    1  ****        0.000000
    218  C        -14.1351   -1.3811  160.0000 C.ar    1  ****        0.000000
    219  C        -13.4028    2.2844  160.0000 C.ar    1  ****        0.000000
    220  C        -14.2885    1.0369  160.0000 C.ar    1  ****        -1.000000
    221  C        -13.3781    4.5667  160.0000 C.ar    1  ****        0.000000
    222  C        -14.0760    3.4331  160.0000 C.ar    1  ****        0.000000
    223  C        -13.4126    6.8912  160.0000 C.ar    1  ****        0.000000
    224  C        -14.0588    5.7185  160.0000 C.ar    1  ****        0.000000
    225  C        -12.1611    9.3531  160.0000 C.ar    1  ****        -1.000000
    226  C        -13.6929    9.2333  160.0000 C.ar    1  ****        0.000000
    227  C        -14.1892    7.9938  160.0000 C.ar    1  ****        0.000000
    228  C        -10.0887  -13.4037  160.0000 C.ar    1  ****        -1.000000
    229  C        -11.6181  -13.3198  160.0000 C.ar    1  ****        0.000000
    230  C         -6.0025  -13.1076  160.0000 C.ar    1  ****        0.000000
    231  C         -7.3290  -13.1282  160.0000 C.ar    1  ****        0.000000
    232  C         -1.9759  -13.0950  160.0000 C.ar    1  ****        0.000000
    233  C         -3.3022  -13.0888  160.0000 C.ar    1  ****        0.000000
    234  C          2.0270  -13.3910  160.0000 C.ar    1  ****        0.000000
    235  C          0.7113  -13.1970  160.0000 C.ar    1  ****        0.000000
    236  C          6.4017  -13.3705  160.0000 C.ar    1  ****        0.000000
    237  C          5.0685  -13.2487  160.0000 C.ar    1  ****        0.000000
    238  H          9.9873   -8.3093  160.0000    H    1  ****        0.000000
    239  H          9.9084   -6.0772  160.0000    H    1  ****        0.000000
    240  H          9.8836   -3.8190  160.0000    H    1  ****        0.000000
    241  H          9.8965   -1.5464  160.0000    H    1  ****        0.000000
    242  H         10.0893    0.8398  160.0000    H    1  ****        0.000000
    243  H          9.9336    3.2441  160.0000    H    1  ****        0.000000
    244  H         10.0500    5.4846  160.0000    H    1  ****        0.000000
    245  H         -7.5662   10.0634  160.0000    H    1  ****        0.000000
    246  H         -9.7791   10.0966  160.0000    H    1  ****        0.000000
    247  H         -3.5344   10.0074  160.0000    H    1  ****        0.000000
    248  H         -5.7084   10.0260  160.0000    H    1  ****        0.000000
    249  H          0.4813   10.0161  160.0000    H    1  ****        0.000000
    250  H         -1.6869   10.0027  160.0000    H    1  ****        0.000000
    251  H          4.5640   10.1129  160.0000    H    1  ****        0.000000
    252  H          2.3300   10.0591  160.0000    H    1  ****        0.000000
    253  H          6.6493   10.4364  160.0000    H    1  ****        0.000000
    254  H          9.2236   10.0696  160.0000    H    1  ****        0.000000
    255  H         10.2424    7.9139  160.0000    H    1  ****        0.000000
    256  H          9.3760  -12.7800  160.0000    H    1  ****        0.000000
    257  H         10.2292  -10.5053  160.0000    H    1  ****        0.000000
    258  H        -14.0895  -13.0271  160.0000    H    1  ****        0.000000
    259  H        -15.2450  -10.9488  160.0000    H    1  ****        0.000000
    260  H        -15.2167   -8.6688  160.0000    H    1  ****        0.000000
    261  H        -15.4328   -6.3047  160.0000    H    1  ****        0.000000
    262  H        -15.4399   -3.7788  160.0000    H    1  ****        0.000000
    263  H        -15.2369   -1.3709  160.0000    H    1  ****        0.000000
    264  H        -15.3877    1.0521  160.0000    H    1  ****        0.000000
    265  H        -15.1787    3.4301  160.0000    H    1  ****        0.000000
    266  H        -15.1630    5.6940  160.0000    H    1  ****        0.000000
    267  H        -11.7205   10.3569  160.0000    H    1  ****        0.000000
    268  H        -14.3309   10.1304  160.0000    H    1  ****        0.000000
    269  H        -15.2912    7.9179  160.0000    H    1  ****        0.000000
    270  H         -9.6370  -14.4013  160.0000    H    1  ****        0.000000
    271  H        -12.1994  -14.2558  160.0000    H    1  ****        0.000000
    272  H         -5.5723  -14.1170  160.0000    H    1  ****        0.000000
    273  H         -7.7578  -14.1372  160.0000    H    1  ****        0.000000
    274  H         -1.5828  -14.1188  160.0000    H    1  ****        0.000000
    275  H         -3.7292  -14.0998  160.0000    H    1  ****        0.000000
    276  H          2.4695  -14.3971  160.0000    H    1  ****        0.000000
    277  H          0.2279  -14.1808  160.0000    H    1  ****        0.000000
    278  H          6.9217  -14.3401  160.0000    H    1  ****        0.000000
    279  H          4.5257  -14.2047  160.0000    H    1  ****        0.000000
    280  C         -3.3397   -1.4739  160.0000 C.ar    1  ****        0.000000
@<TRIPOS>BOND
    1     1     2  1
    2     1     6  2
    3     1    15  1
    4     2     3  2
    5     2    10  1
    6     3     4  1
    7     3     7  1
    8     4     5  2
    9     4    14  1
   10     5     6  1
   11     5    11  1
   12     6    18  1
   13     7     8  2
   14     7    23  1
   15     8     9  1
   16     8    35  1
   17     9    10  2
   18     9    22  1
   19    10   280  1
   20    11    12  2
   21    11    28  1
   22    12    13  1
   23    12    25  1
   24    13    14  2
   25    13    43  1
   26    14    24  1
   27    15    16  2
   28    15    19  1
   29    16    17  1
   30    16    47  1
   31    17    18  2
   32    17    32  1
   33    18    29  1
   34    19    50  2
   35    19   280  1
   36    20    21  1
   37    20    52  1
   38    20   280  2
   39    21    22  2
   40    21    60  1
   41    22    39  1
   42    23    24  2
   43    23    37  1
   44    24    40  1
   45    25    26  2
   46    25    45  1
   47    26    27  1
   48    26    57  1
   49    27    28  2
   50    27    34  1
   51    28    29  1
   52    29    30  2
   53    30    31  1
   54    30    33  1
   55    31    32  2
   56    31    56  1
   57    32    49  1
   58    33    34  2
   59    33   106  1
   60    34   108  1
   61    35    36  2
   62    35    38  1
   63    36    37  1
   64    36    63  1
   65    37    42  2
   66    38    39  2
   67    38    92  1
   68    39    90  1
   69    40    41  2
   70    40    44  1
   71    41    42  1
   72    41   122  1
   73    42    65  1
   74    43    44  2
   75    43    46  1
   76    44   125  1
   77    45    46  2
   78    45    59  1
   79    46   126  1
   80    47    48  2
   81    47    51  1
   82    48    49  1
   83    48    66  1
   84    49    54  2
   85    50    51  1
   86    50    53  1
   87    51    69  2
   88    52    53  2
   89    52    62  1
   90    53    71  1
   91    54    55  1
   92    54    68  1
   93    55    56  2
   94    55   104  1
   95    56   107  1
   96    57    58  2
   97    57   109  1
   98    58    59  1
   99    58   132  1
  100    59   128  2
  101    60    61  2
  102    60    91  1
  103    61    62  1
  104    61    88  1
  105    62    73  2
  106    63    64  2
  107    63    93  1
  108    64    65  1
  109    64    94  1
  110    65   120  2
  111    66    67  2
  112    66    70  1
  113    67    68  1
  114    67    78  1
  115    68    75  2
  116    69    70  1
  117    69    72  1
  118    70    79  2
  119    71    72  2
  120    71    74  1
  121    72    81  1
  122    73    74  1
  123    73    85  1
  124    74    83  2
  125    75    76  1
  126    75   105  1
  127    76    77  1
  128    76   147  2
  129    77    78  2
  130    77   145  1
  131    78    80  1
  132    79    80  1
  133    79    82  1
  134    80   143  2
  135    81    82  2
  136    81    84  1
  137    82   141  1
  138    83    84  1
  139    83    87  1
  140    84   139  2
  141    85    86  2
  142    85    89  1
  143    86    87  1
  144    86   101  1
  145    87   137  2
  146    88    89  2
  147    88    99  1
  148    89   103  1
  149    90    91  2
  150    90    98  1
  151    91   100  1
  152    92    93  2
  153    92    97  1
  154    93    96  1
  155    94    95  2
  156    94   119  1
  157    95    96  1
  158    95   116  1
  159    96   114  2
  160    97    98  2
  161    97   115  1
  162    98   110  1
  163    99   100  2
  164    99   112  1
  165   100   111  1
  166   101   102  1
  167   101   136  2
  168   102   103  2
  169   102   133  1
  170   103   113  1
  171   104   105  2
  172   104   188  1
  173   105   185  1
  174   106   107  2
  175   106   190  1
  176   107   187  1
  177   108   109  2
  178   108   189  1
  179   109   192  1
  180   110   111  2
  181   110   153  1
  182   111   154  1
  183   112   113  2
  184   112   155  1
  185   113   156  1
  186   114   115  1
  187   114   151  1
  188   115   152  2
  189   116   117  2
  190   116   150  1
  191   117   118  1
  192   117   167  1
  193   118   119  1
  194   118   170  2
  195   119   121  2
  196   120   121  1
  197   120   123  1
  198   121   173  1
  199   122   123  2
  200   122   124  1
  201   123   175  1
  202   124   125  2
  203   124   177  1
  204   125   127  1
  205   126   127  2
  206   126   129  1
  207   127   179  1
  208   128   129  1
  209   128   130  1
  210   129   181  2
  211   130   131  1
  212   130   183  1
  213   131   132  2
  214   131   193  1
  215   132   191  1
  216   133   134  2
  217   133   157  1
  218   134   135  1
  219   134   158  1
  220   135   136  1
  221   135   211  2
  222   136   138  1
  223   137   138  1
  224   137   140  1
  225   138   213  2
  226   139   140  1
  227   139   142  1
  228   140   215  2
  229   141   142  2
  230   141   144  1
  231   142   217  1
  232   143   144  1
  233   143   146  1
  234   144   219  2
  235   145   146  2
  236   145   149  1
  237   146   221  1
  238   147   148  1
  239   147   186  1
  240   148   149  2
  241   148   225  1
  242   149   223  1
  243   150   151  2
  244   150   169  1
  245   151   165  1
  246   152   153  1
  247   152   166  1
  248   153   163  2
  249   154   155  2
  250   154   164  1
  251   155   161  1
  252   156   157  2
  253   156   162  1
  254   157   160  1
  255   158   159  2
  256   158   210  1
  257   159   160  1
  258   159   207  1
  259   160   197  2
  260   161   162  2
  261   161   199  1
  262   162   196  1
  263   163   164  1
  264   163   201  1
  265   164   198  2
  266   165   166  2
  267   165   203  1
  268   166   200  1
  269   167   168  2
  270   167   172  1
  271   168   169  1
  272   168   204  1
  273   169   202  2
  274   170   171  1
  275   170   174  1
  276   171   172  2
  277   171   238  1
  278   172   206  1
  279   173   174  2
  280   173   176  1
  281   174   239  1
  282   175   176  2
  283   175   178  1
  284   176   240  1
  285   177   178  2
  286   177   180  1
  287   178   241  1
  288   179   180  1
  289   179   182  2
  290   180   242  1
  291   181   182  1
  292   181   184  1
  293   182   243  1
  294   183   184  2
  295   183   195  1
  296   184   244  1
  297   185   186  2
  298   185   245  1
  299   186   246  1
  300   187   188  2
  301   187   247  1
  302   188   248  1
  303   189   190  2
  304   189   249  1
  305   190   250  1
  306   191   192  2
  307   191   251  1
  308   192   252  1
  309   193   194  1
  310   193   253  1
  311   194   195  2
  312   194   254  1
  313   195   255  1
  314   196   197  1
  315   196   231  2
  316   197   228  1
  317   198   199  1
  318   198   233  1
  319   199   230  2
  320   200   201  2
  321   200   235  1
  322   201   232  1
  323   202   203  1
  324   202   237  1
  325   203   234  1
  326   204   205  1
  327   204   236  1
  328   205   206  2
  329   205   256  1
  330   206   257  1
  331   207   208  1
  332   207   229  2
  333   208   209  2
  334   208   258  1
  335   209   210  1
  336   209   259  1
  337   210   212  2
  338   211   212  1
  339   211   214  1
  340   212   260  1
  341   213   214  1
  342   213   216  1
  343   214   261  1
  344   215   216  1
  345   215   218  1
  346   216   262  1
  347   217   218  2
  348   217   220  1
  349   218   263  1
  350   219   220  1
  351   219   222  1
  352   220   264  1
  353   221   222  2
  354   221   224  1
  355   222   265  1
  356   223   224  2
  357   223   227  1
  358   224   266  1
  359   225   226  1
  360   225   267  1
  361   226   227  2
  362   226   268  1
  363   227   269  1
  364   228   229  1
  365   228   270  1
  366   229   271  1
  367   230   231  1
  368   230   272  1
  369   231   273  1
  370   232   233  2
  371   232   274  1
  372   233   275  1
  373   234   235  2
  374   234   276  1
  375   235   277  1
  376   236   237  2
  377   236   278  1
  378   237   279  1

@<TRIPOS>SUBSTRUCTURE
1 ****        1 TEMP                        0 ****  **** 0 ROOT
