###
### Created by PolyChef-cpp17 on Wed Feb 26 21:14:13 2025
###

@<TRIPOS>MOLECULE
NO_INFO
758 793 1 0 0
SMALL
USER_CHARGES


@<TRIPOS>ATOM
      1 C          66.3297   92.5016  155.4016 C.3       0        0    0.0000
      2 C          66.7716   91.5428  154.3049 C.3       0        0    0.0000
      3 C          68.1129   91.0191  154.8288 C.3       0        0    0.0000
      4 C          69.0067   90.3412  153.7858 C.3       0        0    0.0000
      5 C          68.7483   92.2076  155.5766 C.3       0        0    0.0000
      6 C          67.6233   93.2475  155.7451 C.3       0        0    0.0000
      7 C          67.6139   93.9999  157.0792 C.3       0        0    0.0000
      8 H          65.5424   93.1800  155.0587 H         0        0    0.0000
      9 H          65.9421   91.9343  156.2550 H         0        0    0.0000
     10 H          66.0476   90.7369  154.1503 H         0        0    0.0000
     11 H          66.8822   92.0868  153.3603 H         0        0    0.0000
     12 H          67.8828   90.2554  155.5870 H         0        0    0.0000
     13 H          68.8852   90.8525  152.8236 H         0        0    0.0000
     14 H          70.0561   90.4652  154.0782 H         0        0    0.0000
     15 H          69.5836   92.6575  155.0293 H         0        0    0.0000
     16 H          69.1558   91.8626  156.5330 H         0        0    0.0000
     17 H          67.7728   94.0045  154.9605 H         0        0    0.0000
     18 H          66.7005   94.6030  157.1437 H         0        0    0.0000
     19 H          67.5707   93.2740  157.8998 H         0        0    0.0000
     20 C          70.6356   97.6975  155.5932 C.3       1        0    0.0000
     21 C          69.4982   97.3084  156.5407 C.3       1        0    0.0000
     22 C          69.0421   95.8982  156.1252 C.3       1        0    0.0000
     23 C          68.8445   94.9304  157.2984 C.3       1        0    0.0000
     24 C          70.1220   95.4196  155.1495 C.3       1        0    0.0000
     25 C          70.5896   96.6930  154.4366 C.3       1        0    0.0000
     26 C          69.6349   97.1168  153.3043 C.3       1        0    0.0000
     27 H          70.5611   98.7415  155.2746 H         1        0    0.0000
     28 H          71.5900   97.5907  156.1246 H         1        0    0.0000
     29 H          69.8431   97.3553  157.5795 H         1        0    0.0000
     30 H          68.6637   98.0127  156.4444 H         1        0    0.0000
     31 H          68.0975   95.9907  155.5703 H         1        0    0.0000
     32 H          69.7386   94.3049  157.4076 H         1        0    0.0000
     33 H          68.7281   95.4848  158.2367 H         1        0    0.0000
     34 H          69.7425   94.6602  154.4581 H         1        0    0.0000
     35 H          70.9637   94.9774  155.6981 H         1        0    0.0000
     36 H          71.5956   96.5370  154.0268 H         1        0    0.0000
     37 H          68.8817   97.8254  153.6662 H         1        0    0.0000
     38 H          69.0937   96.2370  152.9363 H         1        0    0.0000
     39 C          70.4030   97.7485  152.1073 C.3       2        0    0.0000
     40 C          70.1125   97.0790  150.7565 C.3       2        0    0.0000
     41 H          70.0835   98.7966  152.0435 H         2        0    0.0000
     42 H          71.4777   97.7611  152.3233 H         2        0    0.0000
     43 H          69.2860   96.3630  150.8357 H         2        0    0.0000
     44 H          69.7875   97.8569  150.0538 H         2        0    0.0000
     45 C          73.3378   99.2754  151.3207 C.3       3        0    0.0000
     46 C          72.2424   98.7886  150.3689 C.3       3        0    0.0000
     47 C          72.5665   97.3205  150.0390 C.3       3        0    0.0000
     48 C          71.3583   96.3785  150.1116 C.3       3        0    0.0000
     49 C          73.6649   96.9384  151.0363 C.3       3        0    0.0000
     50 C          74.4581   98.2319  151.2508 C.3       3        0    0.0000
     51 C          75.4644   98.4992  150.1155 C.3       3        0    0.0000
     52 H          73.6649  100.2913  151.0797 H         3        0    0.0000
     53 H          72.9335   99.3012  152.3408 H         3        0    0.0000
     54 H          71.2586   98.9130  150.8348 H         3        0    0.0000
     55 H          72.2430   99.3854  149.4494 H         3        0    0.0000
     56 H          72.9951   97.2808  149.0274 H         3        0    0.0000
     57 H          71.0897   96.0537  149.0993 H         3        0    0.0000
     58 H          71.6107   95.4750  150.6786 H         3        0    0.0000
     59 H          74.2855   96.1153  150.6674 H         3        0    0.0000
     60 H          73.2220   96.6187  151.9885 H         3        0    0.0000
     61 H          74.9924   98.1814  152.2080 H         3        0    0.0000
     62 H          75.4732   99.5584  149.8356 H         3        0    0.0000
     63 H          75.1645   97.9365  149.2234 H         3        0    0.0000
     64 C          76.9050   98.0576  150.5047 C.3       4        0    0.0000
     65 C          77.9627   99.1571  150.3317 C.3       4        0    0.0000
     66 H          76.8749   97.7781  151.5657 H         4        0    0.0000
     67 H          77.1766   97.1520  149.9497 H         4        0    0.0000
     68 H          78.9136   98.7434  149.9757 H         4        0    0.0000
     69 H          77.6112   99.8485  149.5552 H         4        0    0.0000
     70 C          77.0486  102.9800  150.8289 C.3       5        0    0.0000
     71 C          78.0985  102.0867  150.1627 C.3       5        0    0.0000
     72 C          78.8485  101.3754  151.2943 C.3       5        0    0.0000
     73 C          78.2090  100.0130  151.6222 C.3       5        0    0.0000
     74 C          78.7684  102.4043  152.4292 C.3       5        0    0.0000
     75 C          77.3453  102.9609  152.3376 C.3       5        0    0.0000
     76 C          77.2058  104.3216  153.0295 C.3       5        0    0.0000
     77 H          77.0990  103.9894  150.4052 H         5        0    0.0000
     78 H          76.0395  102.5976  150.6370 H         5        0    0.0000
     79 H          78.8001  102.7208  149.6059 H         5        0    0.0000
     80 H          77.6496  101.3963  149.4414 H         5        0    0.0000
     81 H          79.8952  101.2168  151.0045 H         5        0    0.0000
     82 H          77.2432  100.1776  152.1151 H         5        0    0.0000
     83 H          78.8257   99.4437  152.3259 H         5        0    0.0000
     84 H          79.5011  103.2019  152.2489 H         5        0    0.0000
     85 H          78.9788  101.9839  153.4171 H         5        0    0.0000
     86 H          76.6618  102.2453  152.8158 H         5        0    0.0000
     87 H          76.4132  104.2853  153.7859 H         5        0    0.0000
     88 H          76.9074  105.0761  152.2921 H         5        0    0.0000
     89 C          79.9782  107.7161  151.8260 C.3       6        0    0.0000
     90 C          78.8295  106.7446  152.1095 C.3       6        0    0.0000
     91 C          79.4688  105.4849  152.7083 C.3       6        0    0.0000
     92 C          78.5385  104.7723  153.6938 C.3       6        0    0.0000
     93 C          80.7682  106.0133  153.3249 C.3       6        0    0.0000
     94 C          81.2637  107.0030  152.2653 C.3       6        0    0.0000
     95 C          82.3334  107.9820  152.7572 C.3       6        0    0.0000
     96 H          80.0215  107.9860  150.7654 H         6        0    0.0000
     97 H          79.8203  108.6428  152.3908 H         6        0    0.0000
     98 H          78.2723  106.5065  151.1970 H         6        0    0.0000
     99 H          78.1238  107.2079  152.8094 H         6        0    0.0000
    100 H          79.7237  104.8045  151.8827 H         6        0    0.0000
    101 H          78.3029  105.4495  154.5235 H         6        0    0.0000
    102 H          79.0416  103.9013  154.1298 H         6        0    0.0000
    103 H          81.4910  105.2113  153.5053 H         6        0    0.0000
    104 H          80.5727  106.5223  154.2771 H         6        0    0.0000
    105 H          81.6501  106.4338  151.4072 H         6        0    0.0000
    106 H          82.8286  107.5863  153.6517 H         6        0    0.0000
    107 H          81.8545  108.9236  153.0514 H         6        0    0.0000
    108 C          83.3989  108.2886  151.6693 C.3       7        0    0.0000
    109 C          84.3677  109.4187  152.0459 C.3       7        0    0.0000
    110 H          83.9841  107.3704  151.5312 H         7        0    0.0000
    111 H          82.9028  108.4908  150.7128 H         7        0    0.0000
    112 H          83.8281  110.3066  152.3956 H         7        0    0.0000
    113 H          84.9827  109.0738  152.8869 H         7        0    0.0000
    114 C          85.3564  109.8197  150.8968 C.3       8        0    0.0000
    115 C          86.2900  110.9847  151.2553 C.3       8        0    0.0000
    116 H          84.7405  110.1275  150.0420 H         8        0    0.0000
    117 H          85.9236  108.9390  150.5733 H         8        0    0.0000
    118 H          85.6763  111.8855  151.3845 H         8        0    0.0000
    119 H          86.7960  110.8105  152.2121 H         8        0    0.0000
    120 C          87.3509  111.3147  150.1489 C.3       9        0    0.0000
    121 C          88.2902  112.4740  150.5112 C.3       9        0    0.0000
    122 H          87.9603  110.4118  150.0149 H         9        0    0.0000
    123 H          86.8443  111.4955  149.1935 H         9        0    0.0000
    124 H          87.7292  113.3440  150.8721 H         9        0    0.0000
    125 H          88.9301  112.1471  151.3408 H         9        0    0.0000
    126 C          89.2458  112.9076  149.3461 C.3      10        0    0.0000
    127 C          90.1867  114.0654  149.7091 C.3      10        0    0.0000
    128 H          88.6059  113.2361  148.5171 H        10        0    0.0000
    129 H          89.8056  112.0373  148.9841 H        10        0    0.0000
    130 H          89.5713  114.9420  149.9483 H        10        0    0.0000
    131 H          90.7708  113.8376  150.6086 H        10        0    0.0000
    132 C          89.7097  113.4965  145.1742 C.3      11        0    0.0000
    133 C          89.8895  113.2384  146.6637 C.3      11        0    0.0000
    134 C          90.4841  114.5568  147.1696 C.3      11        0    0.0000
    135 C          91.1498  114.4918  148.5476 C.3      11        0    0.0000
    136 C          91.3792  115.0649  146.0225 C.3      11        0    0.0000
    137 C          91.0090  114.2133  144.7924 C.3      11        0    0.0000
    138 C          90.9788  114.9615  143.4561 C.3      11        0    0.0000
    139 H          89.5720  112.5677  144.6120 H        11        0    0.0000
    140 H          88.8283  114.1265  145.0116 H        11        0    0.0000
    141 H          88.9410  112.9998  147.1546 H        11        0    0.0000
    142 H          90.5718  112.3943  146.8132 H        11        0    0.0000
    143 H          89.6501  115.2692  147.2589 H        11        0    0.0000
    144 H          91.9876  113.7855  148.5074 H        11        0    0.0000
    145 H          91.5764  115.4733  148.7862 H        11        0    0.0000
    146 H          92.4479  114.9548  146.2356 H        11        0    0.0000
    147 H          91.2039  116.1350  145.8679 H        11        0    0.0000
    148 H          91.7851  113.4387  144.6992 H        11        0    0.0000
    149 H          91.7327  114.5300  142.7871 H        11        0    0.0000
    150 H          90.0051  114.8020  142.9779 H        11        0    0.0000
    151 C          91.5129  118.3913  140.3263 C.3      12        0    0.0000
    152 C          91.0042  117.1968  141.1376 C.3      12        0    0.0000
    153 C          91.9435  117.0638  142.3434 C.3      12        0    0.0000
    154 C          91.2331  116.4943  143.5746 C.3      12        0    0.0000
    155 C          92.4866  118.4857  142.5204 C.3      12        0    0.0000
    156 C          92.7385  118.9302  141.0758 C.3      12        0    0.0000
    157 C          92.9139  120.4405  140.8944 C.3      12        0    0.0000
    158 H          91.7752  118.0982  139.3041 H        12        0    0.0000
    159 H          90.7219  119.1474  140.2547 H        12        0    0.0000
    160 H          91.0005  116.2792  140.5395 H        12        0    0.0000
    161 H          89.9705  117.3832  141.4527 H        12        0    0.0000
    162 H          92.7755  116.4035  142.0584 H        12        0    0.0000
    163 H          90.2679  116.9992  143.7013 H        12        0    0.0000
    164 H          91.8177  116.6984  144.4792 H        12        0    0.0000
    165 H          93.4029  118.5019  143.1190 H        12        0    0.0000
    166 H          91.7450  119.1318  143.0067 H        12        0    0.0000
    167 H          93.6288  118.4067  140.6979 H        12        0    0.0000
    168 H          92.0196  120.9715  141.2407 H        12        0    0.0000
    169 H          93.0223  120.6666  139.8268 H        12        0    0.0000
    170 C          94.1611  120.9847  141.6436 C.3      13        0    0.0000
    171 C          95.0473  121.9057  140.7928 C.3      13        0    0.0000
    172 H          93.7893  121.5644  142.4982 H        13        0    0.0000
    173 H          94.7367  120.1490  142.0584 H        13        0    0.0000
    174 H          94.8855  121.7369  139.7217 H        13        0    0.0000
    175 H          94.7528  122.9435  140.9949 H        13        0    0.0000
    176 C          98.3739  120.2706  138.3066 C.3      14        0    0.0000
    177 C          97.0705  120.9152  138.7757 C.3      14        0    0.0000
    178 C          97.4491  121.9340  139.8645 C.3      14        0    0.0000
    179 C          96.5771  121.7976  141.1196 C.3      14        0    0.0000
    180 C          98.9471  121.7007  140.1145 C.3      14        0    0.0000
    181 C          99.4973  121.2003  138.7729 C.3      14        0    0.0000
    182 C          99.7757  122.3165  137.7497 C.3      14        0    0.0000
    183 H          98.4846  119.2956  138.7982 H        14        0    0.0000
    184 H          98.3789  120.0907  137.2270 H        14        0    0.0000
    185 H          96.3725  120.1497  139.1321 H        14        0    0.0000
    186 H          96.5822  121.4328  137.9416 H        14        0    0.0000
    187 H          97.3167  122.9411  139.4444 H        14        0    0.0000
    188 H          96.8513  122.5594  141.8586 H        14        0    0.0000
    189 H          96.7637  120.8227  141.5858 H        14        0    0.0000
    190 H          99.4487  122.6042  140.4746 H        14        0    0.0000
    191 H          99.0895  120.9209  140.8740 H        14        0    0.0000
    192 H         100.4148  120.6198  138.9332 H        14        0    0.0000
    193 H          99.1854  123.2128  137.9687 H        14        0    0.0000
    194 H          99.4705  121.9765  136.7526 H        14        0    0.0000
    195 C         101.2839  122.6902  137.6890 C.3      15        0    0.0000
    196 C         101.6891  123.8085  138.6600 C.3      15        0    0.0000
    197 H         101.8453  121.7861  137.9576 H        15        0    0.0000
    198 H         101.5621  122.9371  136.6578 H        15        0    0.0000
    199 H         102.4719  124.4450  138.2310 H        15        0    0.0000
    200 H         100.8150  124.4522  138.8218 H        15        0    0.0000
    201 C         104.2366  120.9820  138.1398 C.3      16        0    0.0000
    202 C         104.0537  122.4188  138.6263 C.3      16        0    0.0000
    203 C         103.3354  122.3365  139.9844 C.3      16        0    0.0000
    204 C         102.1402  123.2946  140.0711 C.3      16        0    0.0000
    205 C         102.9622  120.8542  140.1401 C.3      16        0    0.0000
    206 C         104.0480  120.0914  139.3705 C.3      16        0    0.0000
    207 C         105.3633  119.9091  140.1498 C.3      16        0    0.0000
    208 H         103.4537  120.7538  137.4053 H        16        0    0.0000
    209 H         105.2000  120.8358  137.6412 H        16        0    0.0000
    210 H         103.4993  123.0053  137.8855 H        16        0    0.0000
    211 H         105.0292  122.9024  138.7551 H        16        0    0.0000
    212 H         104.0620  122.5989  140.7664 H        16        0    0.0000
    213 H         102.3822  124.1484  140.7146 H        16        0    0.0000
    214 H         101.2939  122.7764  140.5378 H        16        0    0.0000
    215 H         102.8913  120.5571  141.1910 H        16        0    0.0000
    216 H         101.9872  120.6562  139.6761 H        16        0    0.0000
    217 H         103.6719  119.1080  139.0609 H        16        0    0.0000
    218 H         105.4672  120.6643  140.9362 H        16        0    0.0000
    219 H         106.2098  120.0495  139.4668 H        16        0    0.0000
    220 C         105.8635  114.9803  139.4458 C.3      17        0    0.0000
    221 C         106.4657  116.2684  140.0131 C.3      17        0    0.0000
    222 C         105.4549  117.3838  139.7155 C.3      17        0    0.0000
    223 C         105.4801  118.4898  140.7742 C.3      17        0    0.0000
    224 C         104.1250  116.6299  139.6112 C.3      17        0    0.0000
    225 C         104.5140  115.3709  138.8290 C.3      17        0    0.0000
    226 C         103.4907  114.2341  138.8999 C.3      17        0    0.0000
    227 H         106.5214  114.5271  138.6965 H        17        0    0.0000
    228 H         105.7389  114.2490  140.2535 H        17        0    0.0000
    229 H         107.4383  116.4888  139.5603 H        17        0    0.0000
    230 H         106.6282  116.1515  141.0913 H        17        0    0.0000
    231 H         105.6949  117.8096  138.7303 H        17        0    0.0000
    232 H         106.4202  118.4321  141.3356 H        17        0    0.0000
    233 H         104.6701  118.3417  141.4980 H        17        0    0.0000
    234 H         103.3623  117.2163  139.0892 H        17        0    0.0000
    235 H         103.7409  116.3713  140.6059 H        17        0    0.0000
    236 H         104.6851  115.6493  137.7789 H        17        0    0.0000
    237 H         102.5053  114.6262  139.1774 H        17        0    0.0000
    238 H         103.7847  113.5311  139.6885 H        17        0    0.0000
    239 C         103.8760  116.3787  135.3291 C.3      18        0    0.0000
    240 C         103.2604  115.8589  136.6305 C.3      18        0    0.0000
    241 C         102.9490  114.3684  136.4057 C.3      18        0    0.0000
    242 C         103.3789  113.4553  137.5605 C.3      18        0    0.0000
    243 C         103.6603  114.0234  135.0933 C.3      18        0    0.0000
    244 C         103.5906  115.3118  134.2665 C.3      18        0    0.0000
    245 C         102.2252  115.4941  133.5769 C.3      18        0    0.0000
    246 H         103.4998  117.3726  135.0690 H        18        0    0.0000
    247 H         104.9613  116.4707  135.4639 H        18        0    0.0000
    248 H         103.9496  116.0286  137.4651 H        18        0    0.0000
    249 H         102.3357  116.4019  136.8587 H        18        0    0.0000
    250 H         101.8666  114.2625  136.2452 H        18        0    0.0000
    251 H         102.6404  112.6543  137.6843 H        18        0    0.0000
    252 H         104.3358  112.9725  137.3311 H        18        0    0.0000
    253 H         103.1980  113.1688  134.5887 H        18        0    0.0000
    254 H         104.7106  113.7674  135.2839 H        18        0    0.0000
    255 H         104.3845  115.3062  133.5089 H        18        0    0.0000
    256 H         102.2571  116.3092  132.8454 H        18        0    0.0000
    257 H         101.4727  115.7676  134.3260 H        18        0    0.0000
    258 C         105.2617  113.0166  133.1912 C.3      19        0    0.0000
    259 C         104.1292  113.4041  132.2371 C.3      19        0    0.0000
    260 C         102.8115  113.0805  132.9638 C.3      19        0    0.0000
    261 C         101.7549  114.1885  132.8726 C.3      19        0    0.0000
    262 C         103.2326  112.7935  134.4086 C.3      19        0    0.0000
    263 C         104.6213  112.1571  134.2865 C.3      19        0    0.0000
    264 C         104.5524  110.6623  133.9203 C.3      19        0    0.0000
    265 H         106.0849  112.5223  132.6667 H        19        0    0.0000
    266 H         105.6705  113.9294  133.6432 H        19        0    0.0000
    267 H         104.2155  114.4613  131.9627 H        19        0    0.0000
    268 H         104.1954  112.8225  131.3102 H        19        0    0.0000
    269 H         102.4010  112.1540  132.5375 H        19        0    0.0000
    270 H         101.5556  114.4143  131.8182 H        19        0    0.0000
    271 H         100.8080  113.8515  133.3098 H        19        0    0.0000
    272 H         102.5135  112.1493  134.9251 H        19        0    0.0000
    273 H         103.3078  113.7292  134.9777 H        19        0    0.0000
    274 H         105.1653  112.2768  135.2320 H        19        0    0.0000
    275 H         103.9126  110.4981  133.0462 H        19        0    0.0000
    276 H         104.1054  110.1042  134.7516 H        19        0    0.0000
    277 C         105.9645  110.0699  133.6433 C.3      20        0    0.0000
    278 C         106.1306  109.4865  132.2328 C.3      20        0    0.0000
    279 H         106.6814  110.8930  133.7579 H        20        0    0.0000
    280 H         106.2120  109.3294  134.4130 H        20        0    0.0000
    281 H         105.8687  108.4222  132.2080 H        20        0    0.0000
    282 H         105.4243  109.9989  131.5671 H        20        0    0.0000
    283 C         106.6104  113.2377  131.5244 C.3      21        0    0.0000
    284 C         107.5473  112.1946  132.1317 C.3      21        0    0.0000
    285 C         107.7514  111.1086  131.0611 C.3      21        0    0.0000
    286 C         107.5598  109.6934  131.6220 C.3      21        0    0.0000
    287 C         106.7679  111.4758  129.9392 C.3      21        0    0.0000
    288 C         106.6393  113.0027  130.0120 C.3      21        0    0.0000
    289 C         107.7941  113.7658  129.3379 C.3      21        0    0.0000
    290 H         105.5936  113.0616  131.8980 H        21        0    0.0000
    291 H         106.8881  114.2568  131.8111 H        21        0    0.0000
    292 H         107.1276  111.8009  133.0639 H        21        0    0.0000
    293 H         108.5124  112.6513  132.3807 H        21        0    0.0000
    294 H         108.7758  111.2048  130.6745 H        21        0    0.0000
    295 H         108.3204  109.4785  132.3816 H        21        0    0.0000
    296 H         107.7015  108.9626  130.8167 H        21        0    0.0000
    297 H         107.1084  111.1194  128.9621 H        21        0    0.0000
    298 H         105.7861  111.0234  130.1302 H        21        0    0.0000
    299 H         105.6873  113.3235  129.5699 H        21        0    0.0000
    300 H         108.0406  113.3329  128.3625 H        21        0    0.0000
    301 H         108.6952  113.6768  129.9567 H        21        0    0.0000
    302 C         103.9024  115.5731  129.9593 C.3      22        0    0.0000
    303 C         105.1761  114.7501  130.1455 C.3      22        0    0.0000
    304 C         106.3517  115.7418  130.1062 C.3      22        0    0.0000
    305 C         107.4747  115.2782  129.1691 C.3      22        0    0.0000
    306 C         105.7181  117.0837  129.7081 C.3      22        0    0.0000
    307 C         104.2882  117.0237  130.2603 C.3      22        0    0.0000
    308 C         104.1782  117.3433  131.7623 C.3      22        0    0.0000
    309 H         103.5792  115.4950  128.9133 H        22        0    0.0000
    310 H         103.0797  115.2046  130.5801 H        22        0    0.0000
    311 H         105.2461  113.9749  129.3746 H        22        0    0.0000
    312 H         105.1585  114.2390  131.1154 H        22        0    0.0000
    313 H         106.7510  115.8317  131.1263 H        22        0    0.0000
    314 H         108.3822  115.8685  129.3410 H        22        0    0.0000
    315 H         107.1745  115.4548  128.1292 H        22        0    0.0000
    316 H         106.2898  117.9361  130.0877 H        22        0    0.0000
    317 H         105.6771  117.1762  128.6150 H        22        0    0.0000
    318 H         103.6365  117.7039  129.6972 H        22        0    0.0000
    319 H         104.2775  116.4373  132.3698 H        22        0    0.0000
    320 H         103.1829  117.7534  131.9720 H        22        0    0.0000
    321 C         107.5091  116.6941  129.8236 C.3      23        0    0.0000
    322 C         107.1815  116.9712  131.2928 C.3      23        0    0.0000
    323 C         106.4919  118.3466  131.3382 C.3      23        0    0.0000
    324 C         105.2346  118.3906  132.2153 C.3      23        0    0.0000
    325 C         106.1917  118.6719  129.8715 C.3      23        0    0.0000
    326 C         107.3432  118.0297  129.0904 C.3      23        0    0.0000
    327 C         108.6190  118.8930  129.1088 C.3      23        0    0.0000
    328 H         108.4999  116.2453  129.7048 H        23        0    0.0000
    329 H         106.7806  115.9743  129.4289 H        23        0    0.0000
    330 H         106.5551  116.1675  131.6952 H        23        0    0.0000
    331 H         108.1002  116.9958  131.8905 H        23        0    0.0000
    332 H         107.2175  119.0842  131.7098 H        23        0    0.0000
    333 H         105.5099  118.1796  133.2556 H        23        0    0.0000
    334 H         104.7926  119.3935  132.2009 H        23        0    0.0000
    335 H         106.1100  119.7500  129.6990 H        23        0    0.0000
    336 H         105.2420  118.2143  129.5653 H        23        0    0.0000
    337 H         107.0330  117.8586  128.0518 H        23        0    0.0000
    338 H         109.4512  118.3797  128.6145 H        23        0    0.0000
    339 H         108.9246  119.0687  130.1470 H        23        0    0.0000
    340 C         105.2781  120.1325  126.2548 C.3      24        0    0.0000
    341 C         106.4752  119.4458  126.8975 C.3      24        0    0.0000
    342 C         106.9690  120.4906  127.9035 C.3      24        0    0.0000
    343 C         108.3909  120.2750  128.4307 C.3      24        0    0.0000
    344 C         106.7083  121.8539  127.2336 C.3      24        0    0.0000
    345 C         105.7813  121.5633  126.0371 C.3      24        0    0.0000
    346 C         104.6940  122.6097  125.7747 C.3      24        0    0.0000
    347 H         104.9865  119.6518  125.3159 H        24        0    0.0000
    348 H         104.4210  120.0962  126.9362 H        24        0    0.0000
    349 H         106.1949  118.5065  127.3842 H        24        0    0.0000
    350 H         107.2275  119.2217  126.1332 H        24        0    0.0000
    351 H         106.3005  120.4342  128.7759 H        24        0    0.0000
    352 H         109.1002  120.3818  127.6014 H        24        0    0.0000
    353 H         108.6291  121.0651  129.1527 H        24        0    0.0000
    354 H         107.6253  122.3357  126.8776 H        24        0    0.0000
    355 H         106.2616  122.5399  127.9614 H        24        0    0.0000
    356 H         106.4193  121.5440  125.1406 H        24        0    0.0000
    357 H         104.1997  122.3815  124.8229 H        24        0    0.0000
    358 H         103.9269  122.5329  126.5544 H        24        0    0.0000
    359 C         105.3320  125.2396  122.1409 C.3      25        0    0.0000
    360 C         104.6867  124.4558  123.2735 C.3      25        0    0.0000
    361 C         105.7698  124.4607  124.3543 C.3      25        0    0.0000
    362 C         105.2155  124.0774  125.7286 C.3      25        0    0.0000
    363 C         106.3626  125.8793  124.2718 C.3      25        0    0.0000
    364 C         106.0266  126.4028  122.8602 C.3      25        0    0.0000
    365 C         107.1962  127.0393  122.0986 C.3      25        0    0.0000
    366 H         104.5927  125.5912  121.4144 H        25        0    0.0000
    367 H         106.0436  124.5977  121.6106 H        25        0    0.0000
    368 H         103.7796  124.9661  123.6198 H        25        0    0.0000
    369 H         104.4133  123.4418  122.9662 H        25        0    0.0000
    370 H         106.5515  123.7447  124.0615 H        25        0    0.0000
    371 H         105.9853  124.2114  126.4977 H        25        0    0.0000
    372 H         104.3910  124.7522  125.9878 H        25        0    0.0000
    373 H         105.9070  126.5437  125.0166 H        25        0    0.0000
    374 H         107.4378  125.8615  124.4788 H        25        0    0.0000
    375 H         105.2743  127.1951  122.9904 H        25        0    0.0000
    376 H         106.7988  127.7017  121.3205 H        25        0    0.0000
    377 H         107.7565  126.2502  121.5832 H        25        0    0.0000
    378 C         107.9447  126.9526  126.5860 C.3      26        0    0.0000
    379 C         107.3722  126.7475  125.1814 C.3      26        0    0.0000
    380 C         107.6272  128.0532  124.4072 C.3      26        0    0.0000
    381 C         108.1812  127.8468  122.9920 C.3      26        0    0.0000
    382 C         108.5877  128.8453  125.3000 C.3      26        0    0.0000
    383 C         108.1937  128.4580  126.7294 C.3      26        0    0.0000
    384 C         106.9582  129.2312  127.2282 C.3      26        0    0.0000
    385 H         107.2891  126.5380  127.3577 H        26        0    0.0000
    386 H         108.9024  126.4212  126.6581 H        26        0    0.0000
    387 H         107.8386  125.8753  124.7102 H        26        0    0.0000
    388 H         106.2951  126.5501  125.2335 H        26        0    0.0000
    389 H         106.6805  128.6089  124.3469 H        26        0    0.0000
    390 H         108.3548  128.8232  122.5240 H        26        0    0.0000
    391 H         109.1504  127.3363  123.0309 H        26        0    0.0000
    392 H         108.5223  129.9229  125.1180 H        26        0    0.0000
    393 H         109.6249  128.5395  125.1109 H        26        0    0.0000
    394 H         109.0376  128.6422  127.4063 H        26        0    0.0000
    395 H         106.8485  129.1435  128.3147 H        26        0    0.0000
    396 H         106.0544  128.8004  126.7810 H        26        0    0.0000
    397 C         107.0219  130.7361  126.8369 C.3      27        0    0.0000
    398 C         107.1572  131.6869  128.0348 C.3      27        0    0.0000
    399 H         107.9079  130.8610  126.2013 H        27        0    0.0000
    400 H         106.1539  130.9942  126.2189 H        27        0    0.0000
    401 H         106.5835  132.6081  127.8797 H        27        0    0.0000
    402 H         106.7240  131.1917  128.9133 H        27        0    0.0000
    403 C         110.5703  132.4177  125.1632 C.3      28        0    0.0000
    404 C         110.3960  131.7494  126.5184 C.3      28        0    0.0000
    405 C         109.4367  132.6885  127.2605 C.3      28        0    0.0000
    406 C         108.6397  132.0431  128.4012 C.3      28        0    0.0000
    407 C         108.5909  133.3710  126.1657 C.3      28        0    0.0000
    408 C         109.1503  132.8730  124.8205 C.3      28        0    0.0000
    409 C         109.1329  133.9115  123.6961 C.3      28        0    0.0000
    410 H         111.2512  133.2735  125.2467 H        28        0    0.0000
    411 H         110.9758  131.7288  124.4159 H        28        0    0.0000
    412 H         109.9713  130.7490  126.3813 H        28        0    0.0000
    413 H         111.3491  131.6390  127.0451 H        28        0    0.0000
    414 H         110.0508  133.4774  127.7198 H        28        0    0.0000
    415 H         109.1521  131.1273  128.7195 H        28        0    0.0000
    416 H         108.6389  132.7187  129.2648 H        28        0    0.0000
    417 H         108.6954  134.4590  126.2606 H        28        0    0.0000
    418 H         107.5221  133.1470  126.2466 H        28        0    0.0000
    419 H         108.5705  131.9904  124.5134 H        28        0    0.0000
    420 H         110.0813  133.8897  123.1463 H        28        0    0.0000
    421 H         108.3463  133.6537  122.9770 H        28        0    0.0000
    422 C         108.7278  137.5530  121.1242 C.3      29        0    0.0000
    423 C         109.0973  136.2375  121.7951 C.3      29        0    0.0000
    424 C         108.3876  136.3335  123.1496 C.3      29        0    0.0000
    425 C         108.8775  135.3528  124.2195 C.3      29        0    0.0000
    426 C         108.4504  137.8242  123.5359 C.3      29        0    0.0000
    427 C         108.8834  138.5708  122.2590 C.3      29        0    0.0000
    428 C         108.2073  139.9252  122.0246 C.3      29        0    0.0000
    429 H         109.3831  137.7782  120.2771 H        29        0    0.0000
    430 H         107.6979  137.5030  120.7538 H        29        0    0.0000
    431 H         108.7598  135.3735  121.2143 H        29        0    0.0000
    432 H         110.1854  136.1703  121.9037 H        29        0    0.0000
    433 H         107.3275  136.0977  122.9717 H        29        0    0.0000
    434 H         109.8053  135.7373  124.6596 H        29        0    0.0000
    435 H         108.1397  135.3079  125.0293 H        29        0    0.0000
    436 H         109.1676  138.0261  124.3388 H        29        0    0.0000
    437 H         107.4720  138.1476  123.9072 H        29        0    0.0000
    438 H         109.9604  138.7727  122.3608 H        29        0    0.0000
    439 H         108.9790  140.6879  121.8666 H        29        0    0.0000
    440 H         107.6184  139.8768  121.1010 H        29        0    0.0000
    441 C         104.3795  141.5298  121.0594 C.3      30        0    0.0000
    442 C         105.7824  140.9637  121.2173 C.3      30        0    0.0000
    443 C         106.0894  141.2161  122.6948 C.3      30        0    0.0000
    444 C         107.2780  140.3867  123.1872 C.3      30        0    0.0000
    445 C         104.7560  140.9138  123.4026 C.3      30        0    0.0000
    446 C         103.6581  141.0596  122.3289 C.3      30        0    0.0000
    447 C         102.4422  141.8992  122.7406 C.3      30        0    0.0000
    448 H         103.8906  141.1626  120.1516 H        30        0    0.0000
    449 H         104.4307  142.6220  120.9938 H        30        0    0.0000
    450 H         105.7867  139.8908  120.9898 H        30        0    0.0000
    451 H         106.5003  141.4574  120.5552 H        30        0    0.0000
    452 H         106.3108  142.2858  122.8226 H        30        0    0.0000
    453 H         107.8656  140.9615  123.9128 H        30        0    0.0000
    454 H         106.9072  139.4998  123.7146 H        30        0    0.0000
    455 H         104.7381  139.8891  123.7944 H        30        0    0.0000
    456 H         104.6120  141.5824  124.2578 H        30        0    0.0000
    457 H         103.2804  140.0462  122.1269 H        30        0    0.0000
    458 H         102.6343  142.9510  122.4978 H        30        0    0.0000
    459 H         102.3245  141.8447  123.8294 H        30        0    0.0000
    460 C          98.9690  144.4602  122.9756 C.3      31        0    0.0000
    461 C         100.2097  143.6130  123.2127 C.3      31        0    0.0000
    462 C          99.8875  142.2964  122.4944 C.3      31        0    0.0000
    463 C         101.1057  141.4648  122.0731 C.3      31        0    0.0000
    464 C          98.9151  142.6693  121.3564 C.3      31        0    0.0000
    465 C          98.6345  144.1754  121.5099 C.3      31        0    0.0000
    466 C          97.2088  144.6009  121.1501 C.3      31        0    0.0000
    467 H          98.1561  144.1367  123.6372 H        31        0    0.0000
    468 H          99.1573  145.5226  123.1582 H        31        0    0.0000
    469 H         101.0834  144.1149  122.7830 H        31        0    0.0000
    470 H         100.4024  143.4602  124.2792 H        31        0    0.0000
    471 H          99.3185  141.6753  123.2022 H        31        0    0.0000
    472 H         100.9185  140.4118  122.3153 H        31        0    0.0000
    473 H         101.2186  141.5211  120.9839 H        31        0    0.0000
    474 H          97.9954  142.0812  121.4659 H        31        0    0.0000
    475 H          99.3147  142.4501  120.3607 H        31        0    0.0000
    476 H          99.3506  144.7236  120.8805 H        31        0    0.0000
    477 H          96.9999  144.3722  120.0983 H        31        0    0.0000
    478 H          96.4958  144.0190  121.7462 H        31        0    0.0000
    479 C          96.9555  146.1132  121.4054 C.3      32        0    0.0000
    480 C          95.7766  146.6914  120.6095 C.3      32        0    0.0000
    481 H          96.7300  146.2207  122.4741 H        32        0    0.0000
    482 H          97.8766  146.6784  121.2211 H        32        0    0.0000
    483 H          95.9326  146.5824  119.5298 H        32        0    0.0000
    484 H          94.8801  146.1087  120.8573 H        32        0    0.0000
    485 C          95.2978  150.2486  117.9148 C.3      33        0    0.0000
    486 C          95.3533  148.8300  118.4797 C.3      33        0    0.0000
    487 C          94.6373  148.8691  119.8408 C.3      33        0    0.0000
    488 C          95.4519  148.1875  120.9481 C.3      33        0    0.0000
    489 C          94.3600  150.3589  120.0943 C.3      33        0    0.0000
    490 C          94.1998  150.9731  118.6978 C.3      33        0    0.0000
    491 C          92.8118  150.7552  118.0684 C.3      33        0    0.0000
    492 H          96.2601  150.7426  118.1010 H        33        0    0.0000
    493 H          95.1356  150.2546  116.8324 H        33        0    0.0000
    494 H          96.3916  148.4887  118.5536 H        33        0    0.0000
    495 H          94.8328  148.1350  117.8102 H        33        0    0.0000
    496 H          93.6760  148.3474  119.7310 H        33        0    0.0000
    497 H          94.9167  148.2419  121.9032 H        33        0    0.0000
    498 H          96.3981  148.7250  121.0845 H        33        0    0.0000
    499 H          93.4846  150.5105  120.7333 H        33        0    0.0000
    500 H          95.2177  150.8260  120.5956 H        33        0    0.0000
    501 H          94.4173  152.0483  118.7303 H        33        0    0.0000
    502 H          92.0486  150.5899  118.8364 H        33        0    0.0000
    503 H          92.8343  149.8501  117.4494 H        33        0    0.0000
    504 C          92.7423  154.8294  119.5705 C.3      34        0    0.0000
    505 C          92.9610  153.3750  119.1828 C.3      34        0    0.0000
    506 C          92.0478  153.2033  117.9672 C.3      34        0    0.0000
    507 C          92.3877  151.9461  117.1629 C.3      34        0    0.0000
    508 C          92.2129  154.5255  117.1958 C.3      34        0    0.0000
    509 C          92.7185  155.5602  118.2221 C.3      34        0    0.0000
    510 C          91.9808  156.9051  118.2188 C.3      34        0    0.0000
    511 H          93.5377  155.2021  120.2236 H        34        0    0.0000
    512 H          91.7936  154.9259  120.1096 H        34        0    0.0000
    513 H          94.0115  153.2070  118.9156 H        34        0    0.0000
    514 H          92.7006  152.6906  119.9960 H        34        0    0.0000
    515 H          91.0090  153.1412  118.3230 H        34        0    0.0000
    516 H          91.5298  151.6459  116.5497 H        34        0    0.0000
    517 H          93.2070  152.1702  116.4695 H        34        0    0.0000
    518 H          92.9548  154.4268  116.3935 H        34        0    0.0000
    519 H          91.2699  154.8165  116.7212 H        34        0    0.0000
    520 H          93.7635  155.7798  117.9573 H        34        0    0.0000
    521 H          92.7137  157.7159  118.3062 H        34        0    0.0000
    522 H          91.3416  156.9625  119.1079 H        34        0    0.0000
    523 C          90.1937  160.8114  116.8132 C.3      35        0    0.0000
    524 C          90.9857  159.6539  117.4270 C.3      35        0    0.0000
    525 C          90.1955  158.3769  117.1124 C.3      35        0    0.0000
    526 C          91.1035  157.1537  116.9582 C.3      35        0    0.0000
    527 C          89.4123  158.7539  115.8505 C.3      35        0    0.0000
    528 C          88.9580  160.1856  116.1534 C.3      35        0    0.0000
    529 C          88.4870  160.9778  114.9306 C.3      35        0    0.0000
    530 H          89.9041  161.5454  117.5729 H        35        0    0.0000
    531 H          90.8196  161.3333  116.0793 H        35        0    0.0000
    532 H          91.1101  159.7827  118.5076 H        35        0    0.0000
    533 H          91.9892  159.6238  116.9858 H        35        0    0.0000
    534 H          89.4809  158.2059  117.9307 H        35        0    0.0000
    535 H          91.7653  157.3005  116.0962 H        35        0    0.0000
    536 H          90.5048  156.2597  116.7483 H        35        0    0.0000
    537 H          88.5643  158.0832  115.6797 H        35        0    0.0000
    538 H          90.0585  158.7260  114.9641 H        35        0    0.0000
    539 H          88.1527  160.1472  116.9015 H        35        0    0.0000
    540 H          87.5155  161.4445  115.1309 H        35        0    0.0000
    541 H          88.3400  160.2906  114.0888 H        35        0    0.0000
    542 C          87.6132  164.6497  112.4558 C.3      36        0    0.0000
    543 C          87.7368  163.2419  113.0217 C.3      36        0    0.0000
    544 C          88.8679  163.3833  114.0456 C.3      36        0    0.0000
    545 C          89.5070  162.0692  114.5049 C.3      36        0    0.0000
    546 C          89.8368  164.4174  113.4397 C.3      36        0    0.0000
    547 C          89.0741  165.0738  112.2723 C.3      36        0    0.0000
    548 C          89.3048  166.5776  112.0952 C.3      36        0    0.0000
    549 H          87.0592  164.6638  111.5121 H        36        0    0.0000
    550 H          87.0847  165.2905  113.1702 H        36        0    0.0000
    551 H          86.8041  162.9035  113.4834 H        36        0    0.0000
    552 H          87.9928  162.5417  112.2189 H        36        0    0.0000
    553 H          88.4302  163.8479  114.9421 H        36        0    0.0000
    554 H          90.1304  161.6721  113.6949 H        36        0    0.0000
    555 H          90.1779  162.2724  115.3480 H        36        0    0.0000
    556 H          90.7616  163.9657  113.0647 H        36        0    0.0000
    557 H          90.1348  165.1357  114.2110 H        36        0    0.0000
    558 H          89.4325  164.5920  111.3501 H        36        0    0.0000
    559 H          88.8233  167.1135  112.9218 H        36        0    0.0000
    560 H          90.3788  166.7864  112.1677 H        36        0    0.0000
    561 C          90.5698  170.3701  110.3092 C.3      37        0    0.0000
    562 C          90.1250  169.2824  111.2899 C.3      37        0    0.0000
    563 C          88.8237  168.6856  110.7247 C.3      37        0    0.0000
    564 C          88.7728  167.1530  110.7484 C.3      37        0    0.0000
    565 C          88.7300  169.2506  109.3037 C.3      37        0    0.0000
    566 C          89.3672  170.6410  109.3987 C.3      37        0    0.0000
    567 C          88.3989  171.6932  109.9716 C.3      37        0    0.0000
    568 H          90.9402  171.2595  110.8279 H        37        0    0.0000
    569 H          91.3991  169.9822  109.7039 H        37        0    0.0000
    570 H          90.9190  168.5368  111.4081 H        37        0    0.0000
    571 H          89.9369  169.7148  112.2796 H        37        0    0.0000
    572 H          87.9802  169.0840  111.3066 H        37        0    0.0000
    573 H          87.7362  166.8219  110.6138 H        37        0    0.0000
    574 H          89.3498  166.7378  109.9139 H        37        0    0.0000
    575 H          87.6973  169.2800  108.9413 H        37        0    0.0000
    576 H          89.3083  168.6300  108.6070 H        37        0    0.0000
    577 H          89.7058  170.9593  108.4045 H        37        0    0.0000
    578 H          88.9436  172.5015  110.4719 H        37        0    0.0000
    579 H          87.7586  171.2246  110.7284 H        37        0    0.0000
    580 C          85.9802  170.8920  105.6861 C.3      38        0    0.0000
    581 C          85.8129  171.3472  107.1278 C.3      38        0    0.0000
    582 C          87.2497  171.3745  107.6642 C.3      38        0    0.0000
    583 C          87.4823  172.2963  108.8680 C.3      38        0    0.0000
    584 C          88.1471  171.6463  106.4393 C.3      38        0    0.0000
    585 C          87.2082  171.6765  105.2194 C.3      38        0    0.0000
    586 C          87.8082  171.0988  103.9352 C.3      38        0    0.0000
    587 H          86.1629  169.8112  105.6479 H        38        0    0.0000
    588 H          85.0946  171.1115  105.0819 H        38        0    0.0000
    589 H          85.3458  172.3378  107.1471 H        38        0    0.0000
    590 H          85.1757  170.6656  107.7001 H        38        0    0.0000
    591 H          87.4847  170.3551  108.0050 H        38        0    0.0000
    592 H          87.9272  173.2349  108.5166 H        38        0    0.0000
    593 H          86.5143  172.5551  109.3133 H        38        0    0.0000
    594 H          88.8855  170.8395  106.3518 H        38        0    0.0000
    595 H          88.7090  172.5829  106.5178 H        38        0    0.0000
    596 H          86.9049  172.7192  105.0456 H        38        0    0.0000
    597 H          88.8711  171.3584  103.8643 H        38        0    0.0000
    598 H          87.7534  170.0042  103.9702 H        38        0    0.0000
    599 C          87.8622  169.4691   99.6078 C.3      39        0    0.0000
    600 C          88.3022  170.1421  100.9004 C.3      39        0    0.0000
    601 C          86.9723  170.5484  101.5439 C.3      39        0    0.0000
    602 C          87.0736  171.5946  102.6581 C.3      39        0    0.0000
    603 C          86.0483  170.9182  100.3671 C.3      39        0    0.0000
    604 C          86.7535  170.3967   99.0998 C.3      39        0    0.0000
    605 C          85.8337  169.7981   98.0312 C.3      39        0    0.0000
    606 H          88.6853  169.3815   98.8918 H        39        0    0.0000
    607 H          87.4900  168.4615   99.8233 H        39        0    0.0000
    608 H          88.8778  169.4646  101.5387 H        39        0    0.0000
    609 H          88.9308  171.0094  100.6707 H        39        0    0.0000
    610 H          86.5505  169.6419  102.0040 H        39        0    0.0000
    611 H          87.5951  172.4787  102.2726 H        39        0    0.0000
    612 H          86.0644  171.9206  102.9365 H        39        0    0.0000
    613 H          85.8848  171.9975  100.2772 H        39        0    0.0000
    614 H          85.0616  170.4682  100.5210 H        39        0    0.0000
    615 H          87.2498  171.2624   98.6355 H        39        0    0.0000
    616 H          86.4372  169.4996   97.1658 H        39        0    0.0000
    617 H          85.3742  168.8839   98.4251 H        39        0    0.0000
    618 C          85.7996  172.0591   94.2491 C.3      40        0    0.0000
    619 C          86.2192  171.3727   95.5513 C.3      40        0    0.0000
    620 C          85.2513  171.8674   96.6411 C.3      40        0    0.0000
    621 C          84.7050  170.7574   97.5475 C.3      40        0    0.0000
    622 C          84.1422  172.5884   95.8684 C.3      40        0    0.0000
    623 C          84.8504  173.1931   94.6513 C.3      40        0    0.0000
    624 C          85.5836  174.5049   94.9899 C.3      40        0    0.0000
    625 H          86.6642  172.3924   93.6673 H        40        0    0.0000
    626 H          85.2540  171.3364   93.6288 H        40        0    0.0000
    627 H          86.1979  170.2847   95.4252 H        40        0    0.0000
    628 H          87.2473  171.6484   95.8137 H        40        0    0.0000
    629 H          85.7768  172.6110   97.2574 H        40        0    0.0000
    630 H          84.2303  171.2077   98.4274 H        40        0    0.0000
    631 H          83.9294  170.1845   97.0263 H        40        0    0.0000
    632 H          83.6363  173.3402   96.4829 H        40        0    0.0000
    633 H          83.3832  171.8708   95.5308 H        40        0    0.0000
    634 H          84.1188  173.3787   93.8546 H        40        0    0.0000
    635 H          86.6276  174.3156   95.2630 H        40        0    0.0000
    636 H          85.1070  174.9743   95.8587 H        40        0    0.0000
    637 C          82.7472  177.9564   93.6217 C.3      41        0    0.0000
    638 C          83.4369  176.8701   94.4505 C.3      41        0    0.0000
    639 C          84.0965  175.9048   93.4492 C.3      41        0    0.0000
    640 C          85.5360  175.5150   93.8070 C.3      41        0    0.0000
    641 C          84.0060  176.6304   92.1029 C.3      41        0    0.0000
    642 C          82.7014  177.4306   92.1829 C.3      41        0    0.0000
    643 C          81.4615  176.5631   91.8945 C.3      41        0    0.0000
    644 H          81.7653  178.2170   94.0281 H        41        0    0.0000
    645 H          83.3598  178.8666   93.6527 H        41        0    0.0000
    646 H          84.1564  177.3250   95.1402 H        41        0    0.0000
    647 H          82.7020  176.3301   95.0589 H        41        0    0.0000
    648 H          83.4805  174.9962   93.3892 H        41        0    0.0000
    649 H          86.0144  175.0528   92.9352 H        41        0    0.0000
    650 H          86.1233  176.4063   94.0563 H        41        0    0.0000
    651 H          84.0260  175.9332   91.2591 H        41        0    0.0000
    652 H          84.8514  177.3203   91.9832 H        41        0    0.0000
    653 H          82.7372  178.2647   91.4707 H        41        0    0.0000
    654 H          80.6412  176.8051   92.5793 H        41        0    0.0000
    655 H          81.7103  175.5075   92.0561 H        41        0    0.0000
    656 C          84.4975  177.4567   89.7148 C.3      42        0    0.0000
    657 C          83.4723  176.3754   90.0527 C.3      42        0    0.0000
    658 C          82.1373  176.8245   89.4337 C.3      42        0    0.0000
    659 C          80.9716  176.7258   90.4264 C.3      42        0    0.0000
    660 C          82.4035  178.2480   88.9203 C.3      42        0    0.0000
    661 C          83.8952  178.2655   88.5629 C.3      42        0    0.0000
    662 C          84.2233  177.6409   87.1945 C.3      42        0    0.0000
    663 H          84.6246  178.1103   90.5873 H        42        0    0.0000
    664 H          85.4799  177.0340   89.4818 H        42        0    0.0000
    665 H          83.4125  176.2314   91.1371 H        42        0    0.0000
    666 H          83.7755  175.4163   89.6167 H        42        0    0.0000
    667 H          81.9297  176.1743   88.5721 H        42        0    0.0000
    668 H          80.3154  175.8886   90.1614 H        42        0    0.0000
    669 H          80.3639  177.6365   90.3630 H        42        0    0.0000
    670 H          81.7566  178.5078   88.0768 H        42        0    0.0000
    671 H          82.2165  178.9810   89.7158 H        42        0    0.0000
    672 H          84.2792  179.2932   88.5926 H        42        0    0.0000
    673 H          83.3573  177.6737   86.5247 H        42        0    0.0000
    674 H          84.4730  176.5817   87.3318 H        42        0    0.0000
    675 C          85.4350  178.3355   86.5109 C.3      43        0    0.0000
    676 C          86.7689  177.6017   86.7107 C.3      43        0    0.0000
    677 H          85.2191  178.3626   85.4352 H        43        0    0.0000
    678 H          85.4994  179.3780   86.8441 H        43        0    0.0000
    679 H          86.6893  176.8344   87.4896 H        43        0    0.0000
    680 H          87.0121  177.0775   85.7776 H        43        0    0.0000
    681 C          88.5852  181.0952   84.2685 C.3      44        0    0.0000
    682 C          88.2055  179.6886   84.7096 C.3      44        0    0.0000
    683 C          87.9826  179.8516   86.2168 C.3      44        0    0.0000
    684 C          87.9770  178.5505   87.0251 C.3      44        0    0.0000
    685 C          89.0096  180.9090   86.6668 C.3      44        0    0.0000
    686 C          89.5445  181.5522   85.3724 C.3      44        0    0.0000
    687 C          89.7972  183.0614   85.4405 C.3      44        0    0.0000
    688 H          89.0604  181.1002   83.2827 H        44        0    0.0000
    689 H          87.6879  181.7217   84.2169 H        44        0    0.0000
    690 H          87.3078  179.3280   84.1978 H        44        0    0.0000
    691 H          89.0253  178.9969   84.4867 H        44        0    0.0000
    692 H          86.9873  180.3033   86.3450 H        44        0    0.0000
    693 H          88.9103  178.0071   86.8353 H        44        0    0.0000
    694 H          87.9655  178.7929   88.0943 H        44        0    0.0000
    695 H          89.8428  180.4792   87.2333 H        44        0    0.0000
    696 H          88.5240  181.6311   87.3319 H        44        0    0.0000
    697 H          90.5174  181.0817   85.1644 H        44        0    0.0000
    698 H          89.4679  183.4359   86.4170 H        44        0    0.0000
    699 H          90.8761  183.2473   85.3793 H        44        0    0.0000
    700 C          90.7988  187.1861   83.7197 C.3      45        0    0.0000
    701 C          90.7860  185.7753   84.3141 C.3      45        0    0.0000
    702 C          89.3098  185.3883   84.4728 C.3      45        0    0.0000
    703 C          89.0839  183.8812   84.3236 C.3      45        0    0.0000
    704 C          88.6089  186.2468   83.4147 C.3      45        0    0.0000
    705 C          89.3298  187.5927   83.5441 C.3      45        0    0.0000
    706 C          89.1262  188.5420   82.3600 C.3      45        0    0.0000
    707 H          91.3260  187.8904   84.3720 H        45        0    0.0000
    708 H          91.3290  187.1730   82.7599 H        45        0    0.0000
    709 H          91.3065  185.7421   85.2772 H        45        0    0.0000
    710 H          91.3101  185.0894   83.6377 H        45        0    0.0000
    711 H          88.9749  185.7155   85.4680 H        45        0    0.0000
    712 H          89.4677  183.5522   83.3505 H        45        0    0.0000
    713 H          88.0113  183.6546   84.3332 H        45        0    0.0000
    714 H          87.5352  186.3377   83.6074 H        45        0    0.0000
    715 H          88.7450  185.8231   82.4118 H        45        0    0.0000
    716 H          88.9964  188.0815   84.4712 H        45        0    0.0000
    717 H          90.0945  188.8464   81.9458 H        45        0    0.0000
    718 H          88.6306  189.4557   82.7097 H        45        0    0.0000
    719 C          86.1766  185.1051   82.7046 C.3      46        0    0.0000
    720 C          87.0543  186.3314   82.9031 C.3      46        0    0.0000
    721 C          87.7548  186.4940   81.5482 C.3      46        0    0.0000
    722 C          88.2595  187.9088   81.2372 C.3      46        0    0.0000
    723 C          86.7912  185.8910   80.5054 C.3      46        0    0.0000
    724 C          85.6049  185.3165   81.3012 C.3      46        0    0.0000
    725 C          85.0076  184.0317   80.7219 C.3      46        0    0.0000
    726 H          86.7831  184.1924   82.7517 H        46        0    0.0000
    727 H          85.3925  185.0352   83.4647 H        46        0    0.0000
    728 H          86.4269  187.1946   83.1501 H        46        0    0.0000
    729 H          87.7702  186.1936   83.7195 H        46        0    0.0000
    730 H          88.6433  185.8455   81.5661 H        46        0    0.0000
    731 H          88.8486  187.8811   80.3127 H        46        0    0.0000
    732 H          87.3999  188.5611   81.0423 H        46        0    0.0000
    733 H          87.3147  185.1033   79.9493 H        46        0    0.0000
    734 H          86.4440  186.6222   79.7679 H        46        0    0.0000
    735 H          84.8248  186.0894   81.3600 H        46        0    0.0000
    736 H          84.3639  183.5455   81.4645 H        46        0    0.0000
    737 H          84.3680  184.2827   79.8673 H        46        0    0.0000
    738 C          89.1257  184.9049   81.5714 C.3      47        0    0.0000
    739 C          87.8178  184.1656   81.8169 C.3      47        0    0.0000
    740 C          87.5340  183.5136   80.4597 C.3      47        0    0.0000
    741 C          86.0966  183.0268   80.2519 C.3      47        0    0.0000
    742 C          88.0541  184.5163   79.4111 C.3      47        0    0.0000
    743 C          88.9089  185.5341   80.1913 C.3      47        0    0.0000
    744 C          90.1782  186.0131   79.4803 C.3      47        0    0.0000
    745 H          89.3201  185.6584   82.3410 H        47        0    0.0000
    746 H          89.9589  184.1935   81.5737 H        47        0    0.0000
    747 H          87.9107  183.4252   82.6174 H        47        0    0.0000
    748 H          87.0373  184.8794   82.1025 H        47        0    0.0000
    749 H          88.1780  182.6237   80.3925 H        47        0    0.0000
    750 H          85.9417  182.8117   79.1879 H        47        0    0.0000
    751 H          85.9576  182.0806   80.7881 H        47        0    0.0000
    752 H          87.2479  185.0408   78.8870 H        47        0    0.0000
    753 H          88.6240  183.9810   78.6440 H        47        0    0.0000
    754 H          88.2803  186.4248   80.3421 H        47        0    0.0000
    755 H          89.8989  186.4997   78.5383 H        47        0    0.0000
    756 H          90.6676  186.7768   80.0964 H        47        0    0.0000
    757 H          90.8973  185.2224   79.2663 H        47        0    0.0000
    758 H          68.8054   89.2791  153.6459 H         0        0    0.0000
@<TRIPOS>BOND
     1     1     2      1
     2     1     6      1
     3     1     8      1
     4     1     9      1
     5     2     3      1
     6     2    10      1
     7     2    11      1
     8     3     4      1
     9     3     5      1
    10     3    12      1
    11     4    13      1
    12     4    14      1
    13     4   758      H
    14     5     6      1
    15     5    15      1
    16     5    16      1
    17     6     7      1
    18     6    17      1
    19     7    18      1
    20     7    19      1
    21     7    23      1
    22    20    21      1
    23    20    25      1
    24    20    27      1
    25    20    28      1
    26    21    22      1
    27    21    29      1
    28    21    30      1
    29    22    23      1
    30    22    24      1
    31    22    31      1
    32    23    32      1
    33    23    33      1
    34    24    25      1
    35    24    34      1
    36    24    35      1
    37    25    26      1
    38    25    36      1
    39    26    37      1
    40    26    38      1
    41    26    39      1
    42    39    40      1
    43    39    41      1
    44    39    42      1
    45    40    43      1
    46    40    44      1
    47    40    48      1
    48    45    46      1
    49    45    50      1
    50    45    52      1
    51    45    53      1
    52    46    47      1
    53    46    54      1
    54    46    55      1
    55    47    48      1
    56    47    49      1
    57    47    56      1
    58    48    57      1
    59    48    58      1
    60    49    50      1
    61    49    59      1
    62    49    60      1
    63    50    51      1
    64    50    61      1
    65    51    62      1
    66    51    63      1
    67    51    64      1
    68    64    65      1
    69    64    66      1
    70    64    67      1
    71    65    68      1
    72    65    69      1
    73    65    73      1
    74    70    71      1
    75    70    75      1
    76    70    77      1
    77    70    78      1
    78    71    72      1
    79    71    79      1
    80    71    80      1
    81    72    73      1
    82    72    74      1
    83    72    81      1
    84    73    82      1
    85    73    83      1
    86    74    75      1
    87    74    84      1
    88    74    85      1
    89    75    76      1
    90    75    86      1
    91    76    87      1
    92    76    88      1
    93    76    92      1
    94    89    90      1
    95    89    94      1
    96    89    96      1
    97    89    97      1
    98    90    91      1
    99    90    98      1
   100    90    99      1
   101    91    92      1
   102    91    93      1
   103    91   100      1
   104    92   101      1
   105    92   102      1
   106    93    94      1
   107    93   103      1
   108    93   104      1
   109    94    95      1
   110    94   105      1
   111    95   106      1
   112    95   107      1
   113    95   108      1
   114   108   109      1
   115   108   110      1
   116   108   111      1
   117   109   112      1
   118   109   113      1
   119   109   114      1
   120   114   115      1
   121   114   116      1
   122   114   117      1
   123   115   118      1
   124   115   119      1
   125   115   120      1
   126   120   121      1
   127   120   122      1
   128   120   123      1
   129   121   124      1
   130   121   125      1
   131   121   126      1
   132   126   127      1
   133   126   128      1
   134   126   129      1
   135   127   130      1
   136   127   131      1
   137   127   135      1
   138   132   133      1
   139   132   137      1
   140   132   139      1
   141   132   140      1
   142   133   134      1
   143   133   141      1
   144   133   142      1
   145   134   135      1
   146   134   136      1
   147   134   143      1
   148   135   144      1
   149   135   145      1
   150   136   137      1
   151   136   146      1
   152   136   147      1
   153   137   138      1
   154   137   148      1
   155   138   149      1
   156   138   150      1
   157   138   154      1
   158   151   152      1
   159   151   156      1
   160   151   158      1
   161   151   159      1
   162   152   153      1
   163   152   160      1
   164   152   161      1
   165   153   154      1
   166   153   155      1
   167   153   162      1
   168   154   163      1
   169   154   164      1
   170   155   156      1
   171   155   165      1
   172   155   166      1
   173   156   157      1
   174   156   167      1
   175   157   168      1
   176   157   169      1
   177   157   170      1
   178   170   171      1
   179   170   172      1
   180   170   173      1
   181   171   174      1
   182   171   175      1
   183   171   179      1
   184   176   177      1
   185   176   181      1
   186   176   183      1
   187   176   184      1
   188   177   178      1
   189   177   185      1
   190   177   186      1
   191   178   179      1
   192   178   180      1
   193   178   187      1
   194   179   188      1
   195   179   189      1
   196   180   181      1
   197   180   190      1
   198   180   191      1
   199   181   182      1
   200   181   192      1
   201   182   193      1
   202   182   194      1
   203   182   195      1
   204   195   196      1
   205   195   197      1
   206   195   198      1
   207   196   199      1
   208   196   200      1
   209   196   204      1
   210   201   202      1
   211   201   206      1
   212   201   208      1
   213   201   209      1
   214   202   203      1
   215   202   210      1
   216   202   211      1
   217   203   204      1
   218   203   205      1
   219   203   212      1
   220   204   213      1
   221   204   214      1
   222   205   206      1
   223   205   215      1
   224   205   216      1
   225   206   207      1
   226   206   217      1
   227   207   218      1
   228   207   219      1
   229   207   223      1
   230   220   221      1
   231   220   225      1
   232   220   227      1
   233   220   228      1
   234   221   222      1
   235   221   229      1
   236   221   230      1
   237   222   223      1
   238   222   224      1
   239   222   231      1
   240   223   232      1
   241   223   233      1
   242   224   225      1
   243   224   234      1
   244   224   235      1
   245   225   226      1
   246   225   236      1
   247   226   237      1
   248   226   238      1
   249   226   242      1
   250   239   240      1
   251   239   244      1
   252   239   246      1
   253   239   247      1
   254   240   241      1
   255   240   248      1
   256   240   249      1
   257   241   242      1
   258   241   243      1
   259   241   250      1
   260   242   251      1
   261   242   252      1
   262   243   244      1
   263   243   253      1
   264   243   254      1
   265   244   245      1
   266   244   255      1
   267   245   256      1
   268   245   257      1
   269   245   261      1
   270   258   259      1
   271   258   263      1
   272   258   265      1
   273   258   266      1
   274   259   260      1
   275   259   267      1
   276   259   268      1
   277   260   261      1
   278   260   262      1
   279   260   269      1
   280   261   270      1
   281   261   271      1
   282   262   263      1
   283   262   272      1
   284   262   273      1
   285   263   264      1
   286   263   274      1
   287   264   275      1
   288   264   276      1
   289   264   277      1
   290   277   278      1
   291   277   279      1
   292   277   280      1
   293   278   281      1
   294   278   282      1
   295   278   286      1
   296   283   284      1
   297   283   288      1
   298   283   290      1
   299   283   291      1
   300   284   285      1
   301   284   292      1
   302   284   293      1
   303   285   286      1
   304   285   287      1
   305   285   294      1
   306   286   295      1
   307   286   296      1
   308   287   288      1
   309   287   297      1
   310   287   298      1
   311   288   289      1
   312   288   299      1
   313   289   300      1
   314   289   301      1
   315   289   305      1
   316   302   303      1
   317   302   307      1
   318   302   309      1
   319   302   310      1
   320   303   304      1
   321   303   311      1
   322   303   312      1
   323   304   305      1
   324   304   306      1
   325   304   313      1
   326   305   314      1
   327   305   315      1
   328   306   307      1
   329   306   316      1
   330   306   317      1
   331   307   308      1
   332   307   318      1
   333   308   319      1
   334   308   320      1
   335   308   324      1
   336   321   322      1
   337   321   326      1
   338   321   328      1
   339   321   329      1
   340   322   323      1
   341   322   330      1
   342   322   331      1
   343   323   324      1
   344   323   325      1
   345   323   332      1
   346   324   333      1
   347   324   334      1
   348   325   326      1
   349   325   335      1
   350   325   336      1
   351   326   327      1
   352   326   337      1
   353   327   338      1
   354   327   339      1
   355   327   343      1
   356   340   341      1
   357   340   345      1
   358   340   347      1
   359   340   348      1
   360   341   342      1
   361   341   349      1
   362   341   350      1
   363   342   343      1
   364   342   344      1
   365   342   351      1
   366   343   352      1
   367   343   353      1
   368   344   345      1
   369   344   354      1
   370   344   355      1
   371   345   346      1
   372   345   356      1
   373   346   357      1
   374   346   358      1
   375   346   362      1
   376   359   360      1
   377   359   364      1
   378   359   366      1
   379   359   367      1
   380   360   361      1
   381   360   368      1
   382   360   369      1
   383   361   362      1
   384   361   363      1
   385   361   370      1
   386   362   371      1
   387   362   372      1
   388   363   364      1
   389   363   373      1
   390   363   374      1
   391   364   365      1
   392   364   375      1
   393   365   376      1
   394   365   377      1
   395   365   381      1
   396   378   379      1
   397   378   383      1
   398   378   385      1
   399   378   386      1
   400   379   380      1
   401   379   387      1
   402   379   388      1
   403   380   381      1
   404   380   382      1
   405   380   389      1
   406   381   390      1
   407   381   391      1
   408   382   383      1
   409   382   392      1
   410   382   393      1
   411   383   384      1
   412   383   394      1
   413   384   395      1
   414   384   396      1
   415   384   397      1
   416   397   398      1
   417   397   399      1
   418   397   400      1
   419   398   401      1
   420   398   402      1
   421   398   406      1
   422   403   404      1
   423   403   408      1
   424   403   410      1
   425   403   411      1
   426   404   405      1
   427   404   412      1
   428   404   413      1
   429   405   406      1
   430   405   407      1
   431   405   414      1
   432   406   415      1
   433   406   416      1
   434   407   408      1
   435   407   417      1
   436   407   418      1
   437   408   409      1
   438   408   419      1
   439   409   420      1
   440   409   421      1
   441   409   425      1
   442   422   423      1
   443   422   427      1
   444   422   429      1
   445   422   430      1
   446   423   424      1
   447   423   431      1
   448   423   432      1
   449   424   425      1
   450   424   426      1
   451   424   433      1
   452   425   434      1
   453   425   435      1
   454   426   427      1
   455   426   436      1
   456   426   437      1
   457   427   428      1
   458   427   438      1
   459   428   439      1
   460   428   440      1
   461   428   444      1
   462   441   442      1
   463   441   446      1
   464   441   448      1
   465   441   449      1
   466   442   443      1
   467   442   450      1
   468   442   451      1
   469   443   444      1
   470   443   445      1
   471   443   452      1
   472   444   453      1
   473   444   454      1
   474   445   446      1
   475   445   455      1
   476   445   456      1
   477   446   447      1
   478   446   457      1
   479   447   458      1
   480   447   459      1
   481   447   463      1
   482   460   461      1
   483   460   465      1
   484   460   467      1
   485   460   468      1
   486   461   462      1
   487   461   469      1
   488   461   470      1
   489   462   463      1
   490   462   464      1
   491   462   471      1
   492   463   472      1
   493   463   473      1
   494   464   465      1
   495   464   474      1
   496   464   475      1
   497   465   466      1
   498   465   476      1
   499   466   477      1
   500   466   478      1
   501   466   479      1
   502   479   480      1
   503   479   481      1
   504   479   482      1
   505   480   483      1
   506   480   484      1
   507   480   488      1
   508   485   486      1
   509   485   490      1
   510   485   492      1
   511   485   493      1
   512   486   487      1
   513   486   494      1
   514   486   495      1
   515   487   488      1
   516   487   489      1
   517   487   496      1
   518   488   497      1
   519   488   498      1
   520   489   490      1
   521   489   499      1
   522   489   500      1
   523   490   491      1
   524   490   501      1
   525   491   502      1
   526   491   503      1
   527   491   507      1
   528   504   505      1
   529   504   509      1
   530   504   511      1
   531   504   512      1
   532   505   506      1
   533   505   513      1
   534   505   514      1
   535   506   507      1
   536   506   508      1
   537   506   515      1
   538   507   516      1
   539   507   517      1
   540   508   509      1
   541   508   518      1
   542   508   519      1
   543   509   510      1
   544   509   520      1
   545   510   521      1
   546   510   522      1
   547   510   526      1
   548   523   524      1
   549   523   528      1
   550   523   530      1
   551   523   531      1
   552   524   525      1
   553   524   532      1
   554   524   533      1
   555   525   526      1
   556   525   527      1
   557   525   534      1
   558   526   535      1
   559   526   536      1
   560   527   528      1
   561   527   537      1
   562   527   538      1
   563   528   529      1
   564   528   539      1
   565   529   540      1
   566   529   541      1
   567   529   545      1
   568   542   543      1
   569   542   547      1
   570   542   549      1
   571   542   550      1
   572   543   544      1
   573   543   551      1
   574   543   552      1
   575   544   545      1
   576   544   546      1
   577   544   553      1
   578   545   554      1
   579   545   555      1
   580   546   547      1
   581   546   556      1
   582   546   557      1
   583   547   548      1
   584   547   558      1
   585   548   559      1
   586   548   560      1
   587   548   564      1
   588   561   562      1
   589   561   566      1
   590   561   568      1
   591   561   569      1
   592   562   563      1
   593   562   570      1
   594   562   571      1
   595   563   564      1
   596   563   565      1
   597   563   572      1
   598   564   573      1
   599   564   574      1
   600   565   566      1
   601   565   575      1
   602   565   576      1
   603   566   567      1
   604   566   577      1
   605   567   578      1
   606   567   579      1
   607   567   583      1
   608   580   581      1
   609   580   585      1
   610   580   587      1
   611   580   588      1
   612   581   582      1
   613   581   589      1
   614   581   590      1
   615   582   583      1
   616   582   584      1
   617   582   591      1
   618   583   592      1
   619   583   593      1
   620   584   585      1
   621   584   594      1
   622   584   595      1
   623   585   586      1
   624   585   596      1
   625   586   597      1
   626   586   598      1
   627   586   602      1
   628   599   600      1
   629   599   604      1
   630   599   606      1
   631   599   607      1
   632   600   601      1
   633   600   608      1
   634   600   609      1
   635   601   602      1
   636   601   603      1
   637   601   610      1
   638   602   611      1
   639   602   612      1
   640   603   604      1
   641   603   613      1
   642   603   614      1
   643   604   605      1
   644   604   615      1
   645   605   616      1
   646   605   617      1
   647   605   621      1
   648   618   619      1
   649   618   623      1
   650   618   625      1
   651   618   626      1
   652   619   620      1
   653   619   627      1
   654   619   628      1
   655   620   621      1
   656   620   622      1
   657   620   629      1
   658   621   630      1
   659   621   631      1
   660   622   623      1
   661   622   632      1
   662   622   633      1
   663   623   624      1
   664   623   634      1
   665   624   635      1
   666   624   636      1
   667   624   640      1
   668   637   638      1
   669   637   642      1
   670   637   644      1
   671   637   645      1
   672   638   639      1
   673   638   646      1
   674   638   647      1
   675   639   640      1
   676   639   641      1
   677   639   648      1
   678   640   649      1
   679   640   650      1
   680   641   642      1
   681   641   651      1
   682   641   652      1
   683   642   643      1
   684   642   653      1
   685   643   654      1
   686   643   655      1
   687   643   659      1
   688   656   657      1
   689   656   661      1
   690   656   663      1
   691   656   664      1
   692   657   658      1
   693   657   665      1
   694   657   666      1
   695   658   659      1
   696   658   660      1
   697   658   667      1
   698   659   668      1
   699   659   669      1
   700   660   661      1
   701   660   670      1
   702   660   671      1
   703   661   662      1
   704   661   672      1
   705   662   673      1
   706   662   674      1
   707   662   675      1
   708   675   676      1
   709   675   677      1
   710   675   678      1
   711   676   679      1
   712   676   680      1
   713   676   684      1
   714   681   682      1
   715   681   686      1
   716   681   688      1
   717   681   689      1
   718   682   683      1
   719   682   690      1
   720   682   691      1
   721   683   684      1
   722   683   685      1
   723   683   692      1
   724   684   693      1
   725   684   694      1
   726   685   686      1
   727   685   695      1
   728   685   696      1
   729   686   687      1
   730   686   697      1
   731   687   698      1
   732   687   699      1
   733   687   703      1
   734   700   701      1
   735   700   705      1
   736   700   707      1
   737   700   708      1
   738   701   702      1
   739   701   709      1
   740   701   710      1
   741   702   703      1
   742   702   704      1
   743   702   711      1
   744   703   712      1
   745   703   713      1
   746   704   705      1
   747   704   714      1
   748   704   715      1
   749   705   706      1
   750   705   716      1
   751   706   717      1
   752   706   718      1
   753   706   722      1
   754   719   720      1
   755   719   724      1
   756   719   726      1
   757   719   727      1
   758   720   721      1
   759   720   728      1
   760   720   729      1
   761   721   722      1
   762   721   723      1
   763   721   730      1
   764   722   731      1
   765   722   732      1
   766   723   724      1
   767   723   733      1
   768   723   734      1
   769   724   725      1
   770   724   735      1
   771   725   736      1
   772   725   737      1
   773   725   741      1
   774   738   739      1
   775   738   743      1
   776   738   745      1
   777   738   746      1
   778   739   740      1
   779   739   747      1
   780   739   748      1
   781   740   741      1
   782   740   742      1
   783   740   749      1
   784   741   750      1
   785   741   751      1
   786   742   743      1
   787   742   752      1
   788   742   753      1
   789   743   744      1
   790   743   754      1
   791   744   755      1
   792   744   756      1
   793   744   757      H
