###
### Created by PolyChef-cpp17 on Wed Feb 26 21:14:12 2025
###

@<TRIPOS>MOLECULE
NO_INFO
1449 1515 1 0 0
SMALL
USER_CHARGES


@<TRIPOS>ATOM
      1 C         100.9872   62.3105  161.8094 C.3       0        0    0.0000
      2 C         101.1711   61.6148  160.4679 C.3       0        0    0.0000
      3 C         102.6889   61.6625  160.2636 C.3       0        0    0.0000
      4 C         103.1681   61.4035  158.8320 C.3       0        0    0.0000
      5 C         103.1400   62.9994  160.8837 C.3       0        0    0.0000
      6 C         101.9403   63.5058  161.7081 C.3       0        0    0.0000
      7 C         102.2906   64.1819  163.0372 C.3       0        0    0.0000
      8 H          99.9506   62.6234  161.9689 H         0        0    0.0000
      9 H         101.2655   61.6290  162.6208 H         0        0    0.0000
     10 H         100.7903   60.5889  160.4838 H         0        0    0.0000
     11 H         100.6329   62.1656  159.6887 H         0        0    0.0000
     12 H         103.1198   60.8640  160.8865 H         0        0    0.0000
     13 H         102.4785   61.8881  158.1306 H         0        0    0.0000
     14 H         104.1465   61.8777  158.6902 H         0        0    0.0000
     15 H         103.4093   63.7484  160.1311 H         0        0    0.0000
     16 H         104.0363   62.8368  161.4920 H         0        0    0.0000
     17 H         101.4340   64.2663  161.0946 H         0        0    0.0000
     18 H         101.4069   64.1751  163.6861 H         0        0    0.0000
     19 H         103.0608   63.5915  163.5475 H         0        0    0.0000
     20 C         100.8315   68.7869  162.6420 C.3       1        0    0.0000
     21 C         100.8871   67.3588  163.1901 C.3       1        0    0.0000
     22 C         101.7563   66.5462  162.2137 C.3       1        0    0.0000
     23 C         102.7965   65.6489  162.8956 C.3       1        0    0.0000
     24 C         102.3997   67.6003  161.3070 C.3       1        0    0.0000
     25 C         101.3495   68.7113  161.2016 C.3       1        0    0.0000
     26 C         100.2464   68.3819  160.1780 C.3       1        0    0.0000
     27 H          99.8296   69.2178  162.7289 H         1        0    0.0000
     28 H         101.5059   69.4189  163.2340 H         1        0    0.0000
     29 H         101.2851   67.3643  164.2108 H         1        0    0.0000
     30 H          99.8798   66.9290  163.2376 H         1        0    0.0000
     31 H         101.0922   65.9244  161.5963 H         1        0    0.0000
     32 H         103.7174   65.6435  162.3004 H         1        0    0.0000
     33 H         103.0583   66.0479  163.8824 H         1        0    0.0000
     34 H         102.6807   67.1869  160.3329 H         1        0    0.0000
     35 H         103.3099   68.0002  161.7724 H         1        0    0.0000
     36 H         101.8376   69.6536  160.9220 H         1        0    0.0000
     37 H          99.2585   68.6693  160.5546 H         1        0    0.0000
     38 H         100.2197   67.2990  160.0076 H         1        0    0.0000
     39 C         100.4996   69.0810  158.8109 C.3       2        0    0.0000
     40 C          99.2888   69.8573  158.2735 C.3       2        0    0.0000
     41 H         101.3194   69.7939  158.9667 H         2        0    0.0000
     42 H         100.8581   68.3458  158.0808 H         2        0    0.0000
     43 H          99.2121   69.7718  157.1832 H         2        0    0.0000
     44 H          98.3807   69.4017  158.6886 H         2        0    0.0000
     45 C         101.3194   74.4365  158.2980 C.3       3        0    0.0000
     46 C         100.2464   73.5344  157.6832 C.3       3        0    0.0000
     47 C         100.5182   72.1109  158.2019 C.3       3        0    0.0000
     48 C          99.2666   71.3695  158.6878 C.3       3        0    0.0000
     49 C         101.5528   72.3012  159.3157 C.3       3        0    0.0000
     50 C         102.3933   73.4992  158.8608 C.3       3        0    0.0000
     51 C         103.4602   73.1073  157.8210 C.3       3        0    0.0000
     52 H         101.7024   75.1640  157.5761 H         3        0    0.0000
     53 H         100.8716   75.0065  159.1223 H         3        0    0.0000
     54 H          99.2495   73.9018  157.9507 H         3        0    0.0000
     55 H         100.3150   73.5512  156.5892 H         3        0    0.0000
     56 H         100.9892   71.5334  157.3936 H         3        0    0.0000
     57 H          99.2103   71.4299  159.7812 H         3        0    0.0000
     58 H          98.3617   71.8482  158.2961 H         3        0    0.0000
     59 H         102.1513   71.3990  159.4780 H         3        0    0.0000
     60 H         101.0540   72.5431  160.2632 H         3        0    0.0000
     61 H         102.8817   73.9573  159.7303 H         3        0    0.0000
     62 H         103.0815   73.2294  156.8001 H         3        0    0.0000
     63 H         103.7142   72.0475  157.9418 H         3        0    0.0000
     64 C         104.7641   73.9399  157.9893 C.3       4        0    0.0000
     65 C         105.8811   73.5551  157.0087 C.3       4        0    0.0000
     66 H         104.4964   74.9884  157.8060 H         4        0    0.0000
     67 H         105.1081   73.8815  159.0287 H         4        0    0.0000
     68 H         106.3108   72.5776  157.2572 H         4        0    0.0000
     69 H         105.4382   73.4582  156.0092 H         4        0    0.0000
     70 C         106.8458   76.4637  154.1836 C.3       5        0    0.0000
     71 C         106.7236   74.9525  154.3970 C.3       5        0    0.0000
     72 C         107.7068   74.5880  155.5147 C.3       5        0    0.0000
     73 C         107.0249   74.6217  156.8955 C.3       5        0    0.0000
     74 C         108.8107   75.6363  155.3257 C.3       5        0    0.0000
     75 C         108.0561   76.9300  155.0097 C.3       5        0    0.0000
     76 C         108.9424   77.9657  154.3085 C.3       5        0    0.0000
     77 H         106.9606   76.6784  153.1151 H         5        0    0.0000
     78 H         105.9373   76.9753  154.5216 H         5        0    0.0000
     79 H         107.0197   74.4400  153.4729 H         5        0    0.0000
     80 H         105.6933   74.6522  154.6134 H         5        0    0.0000
     81 H         108.1106   73.5823  155.3415 H         5        0    0.0000
     82 H         106.5869   75.6141  157.0569 H         5        0    0.0000
     83 H         107.7506   74.4659  157.7009 H         5        0    0.0000
     84 H         109.4438   75.3481  154.4764 H         5        0    0.0000
     85 H         109.4629   75.7474  156.1972 H         5        0    0.0000
     86 H         107.6875   77.3558  155.9536 H         5        0    0.0000
     87 H         108.7701   78.9629  154.7299 H         5        0    0.0000
     88 H         108.6716   78.0177  153.2473 H         5        0    0.0000
     89 C         111.2711   80.8033  152.5945 C.3       6        0    0.0000
     90 C         110.8107   79.3433  152.5940 C.3       6        0    0.0000
     91 C         111.3570   78.7191  153.8848 C.3       6        0    0.0000
     92 C         110.4519   77.6068  154.4218 C.3       6        0    0.0000
     93 C         111.5086   79.9251  154.8178 C.3       6        0    0.0000
     94 C         112.0764   81.0005  153.8855 C.3       6        0    0.0000
     95 C         111.9729   82.4305  154.4233 C.3       6        0    0.0000
     96 H         111.8801   81.0312  151.7131 H         6        0    0.0000
     97 H         110.3951   81.4623  152.5633 H         6        0    0.0000
     98 H         111.1791   78.8078  151.7124 H         6        0    0.0000
     99 H         109.7152   79.3059  152.5626 H         6        0    0.0000
    100 H         112.3564   78.3121  153.6724 H         6        0    0.0000
    101 H         110.6889   77.4251  155.4770 H         6        0    0.0000
    102 H         110.6450   76.6687  153.8885 H         6        0    0.0000
    103 H         112.1814   79.7127  155.6547 H         6        0    0.0000
    104 H         110.5369   80.2314  155.2251 H         6        0    0.0000
    105 H         113.1285   80.7607  153.6731 H         6        0    0.0000
    106 H         112.9563   82.7843  154.7544 H         6        0    0.0000
    107 H         111.3206   82.4394  155.3047 H         6        0    0.0000
    108 C         111.3956   83.4171  153.3716 C.3       7        0    0.0000
    109 C         110.8037   84.6981  153.9767 C.3       7        0    0.0000
    110 H         112.2276   83.7034  152.7155 H         7        0    0.0000
    111 H         110.6637   82.8986  152.7413 H         7        0    0.0000
    112 H         110.1713   84.4743  154.8438 H         7        0    0.0000
    113 H         111.6331   85.3157  154.3444 H         7        0    0.0000
    114 C         110.0048   85.5764  152.9526 C.3       8        0    0.0000
    115 C         109.1037   86.6334  153.6069 C.3       8        0    0.0000
    116 H         109.3661   84.8924  152.3791 H         8        0    0.0000
    117 H         110.6987   86.0319  152.2363 H         8        0    0.0000
    118 H         108.4353   86.1221  154.3114 H         8        0    0.0000
    119 H         109.6904   87.3490  154.1948 H         8        0    0.0000
    120 C         108.1889   87.4058  152.5944 C.3       9        0    0.0000
    121 C         107.0435   88.1844  153.2571 C.3       9        0    0.0000
    122 H         108.8319   88.1254  152.0716 H         9        0    0.0000
    123 H         107.8119   86.7121  151.8337 H         9        0    0.0000
    124 H         106.4800   87.5507  153.9519 H         9        0    0.0000
    125 H         107.4829   88.9927  153.8556 H         9        0    0.0000
    126 C         106.0590   88.8584  152.2397 C.3      10        0    0.0000
    127 C         105.3428   90.0988  152.7929 C.3      10        0    0.0000
    128 H         105.2975   88.1081  151.9913 H        10        0    0.0000
    129 H         106.5897   89.0867  151.3080 H        10        0    0.0000
    130 H         104.5843   89.7619  153.5112 H        10        0    0.0000
    131 H         106.0341   90.7446  153.3469 H        10        0    0.0000
    132 C         107.1112   92.5610  149.3643 C.3      11        0    0.0000
    133 C         106.7380   92.0231  150.7387 C.3      11        0    0.0000
    134 C         105.4355   91.2636  150.4663 C.3      11        0    0.0000
    135 C         104.5921   90.9400  151.7032 C.3      11        0    0.0000
    136 C         104.7185   92.0696  149.3654 C.3      11        0    0.0000
    137 C         105.7687   93.0537  148.8141 C.3      11        0    0.0000
    138 C         105.7243   93.2876  147.3010 C.3      11        0    0.0000
    139 H         107.8502   93.3658  149.4272 H        11        0    0.0000
    140 H         107.5360   91.7559  148.7547 H        11        0    0.0000
    141 H         107.5163   91.3714  151.1477 H        11        0    0.0000
    142 H         106.5914   92.8563  151.4348 H        11        0    0.0000
    143 H         105.7167   90.2984  150.0187 H        11        0    0.0000
    144 H         104.2478   91.8770  152.1569 H        11        0    0.0000
    145 H         103.6947   90.3924  151.3919 H        11        0    0.0000
    146 H         103.8548   92.6286  149.7412 H        11        0    0.0000
    147 H         104.3345   91.3847  148.6017 H        11        0    0.0000
    148 H         105.5683   94.0271  149.2868 H        11        0    0.0000
    149 H         106.3818   94.1282  147.0493 H        11        0    0.0000
    150 H         106.1300   92.4064  146.7901 H        11        0    0.0000
    151 C         103.3113   95.5152  143.6567 C.3      12        0    0.0000
    152 C         102.9828   94.5224  144.7748 C.3      12        0    0.0000
    153 C         104.3251   93.9556  145.2555 C.3      12        0    0.0000
    154 C         104.3004   93.5803  146.7398 C.3      12        0    0.0000
    155 C         105.3205   95.0629  144.8934 C.3      12        0    0.0000
    156 C         104.8384   95.5068  143.5083 C.3      12        0    0.0000
    157 C         105.3857   96.8600  143.0456 C.3      12        0    0.0000
    158 H         102.8238   95.2350  142.7167 H        12        0    0.0000
    159 H         102.9403   96.5100  143.9311 H        12        0    0.0000
    160 H         102.3236   93.7232  144.4195 H        12        0    0.0000
    161 H         102.4551   95.0438  145.5825 H        12        0    0.0000
    162 H         104.5565   93.0651  144.6529 H        12        0    0.0000
    163 H         103.6810   92.6858  146.8767 H        12        0    0.0000
    164 H         103.8343   94.3804  147.3266 H        12        0    0.0000
    165 H         106.3510   94.6946  144.8691 H        12        0    0.0000
    166 H         105.2664   95.8903  145.6120 H        12        0    0.0000
    167 H         105.1074   94.7300  142.7776 H        12        0    0.0000
    168 H         104.7143   97.6685  143.3579 H        12        0    0.0000
    169 H         105.4183   96.8817  141.9497 H        12        0    0.0000
    170 C         106.8148   97.1361  143.5880 C.3      13        0    0.0000
    171 C         107.3594   98.5268  143.2316 C.3      13        0    0.0000
    172 H         106.7584   97.0626  144.6816 H        13        0    0.0000
    173 H         107.4957   96.3438  143.2553 H        13        0    0.0000
    174 H         107.3864   98.6784  142.1462 H        13        0    0.0000
    175 H         106.6681   99.2771  143.6362 H        13        0    0.0000
    176 C         109.1987  102.4534  144.2822 C.3      14        0    0.0000
    177 C         109.8000  101.0694  144.5219 C.3      14        0    0.0000
    178 C         109.3316  100.1777  143.3589 C.3      14        0    0.0000
    179 C         108.7700   98.8345  143.8434 C.3      14        0    0.0000
    180 C         108.3184  101.0389  142.5893 C.3      14        0    0.0000
    181 C         108.7822  102.4844  142.8094 C.3      14        0    0.0000
    182 C         109.9434  102.9201  141.8972 C.3      14        0    0.0000
    183 H         108.3072  102.5669  144.9122 H        14        0    0.0000
    184 H         109.8914  103.2559  144.5548 H        14        0    0.0000
    185 H         109.4969  100.6858  145.5023 H        14        0    0.0000
    186 H         110.8949  101.1270  144.5232 H        14        0    0.0000
    187 H         110.1975   99.9899  142.7084 H        14        0    0.0000
    188 H         108.7089   98.8196  144.9378 H        14        0    0.0000
    189 H         109.4562   98.0296  143.5538 H        14        0    0.0000
    190 H         108.2634  100.7616  141.5321 H        14        0    0.0000
    191 H         107.3136  100.9158  143.0140 H        14        0    0.0000
    192 H         107.9402  103.1759  142.6780 H        14        0    0.0000
    193 H         110.8185  102.2754  142.0325 H        14        0    0.0000
    194 H         110.2565  103.9348  142.1713 H        14        0    0.0000
    195 C         109.5344  102.9323  140.3970 C.3      15        0    0.0000
    196 C         110.5789  103.5715  139.4708 C.3      15        0    0.0000
    197 H         109.4070  101.8849  140.0948 H        15        0    0.0000
    198 H         108.5550  103.4121  140.2849 H        15        0    0.0000
    199 H         111.4507  102.9193  139.3426 H        15        0    0.0000
    200 H         110.1266  103.6895  138.4778 H        15        0    0.0000
    201 C         113.5761  106.9701  138.1420 C.3      16        0    0.0000
    202 C         112.8946  105.6090  138.2747 C.3      16        0    0.0000
    203 C         111.4537  105.8807  138.7404 C.3      16        0    0.0000
    204 C         111.0477  104.9966  139.9268 C.3      16        0    0.0000
    205 C         111.4173  107.3871  139.0408 C.3      16        0    0.0000
    206 C         112.4485  108.0041  138.0874 C.3      16        0    0.0000
    207 C         111.9344  108.2123  136.6512 C.3      16        0    0.0000
    208 H         114.1876  107.1493  139.0356 H        16        0    0.0000
    209 H         114.2465  107.0122  137.2779 H        16        0    0.0000
    210 H         113.4526  104.9683  138.9662 H        16        0    0.0000
    211 H         112.8774  105.0978  137.3049 H        16        0    0.0000
    212 H         110.7819  105.6757  137.8949 H        16        0    0.0000
    213 H         110.2520  105.4789  140.5065 H        16        0    0.0000
    214 H         111.9045  104.8801  140.6014 H        16        0    0.0000
    215 H         110.4138  107.8060  138.9178 H        16        0    0.0000
    216 H         111.7278  107.5765  140.0767 H        16        0    0.0000
    217 H         112.8061  108.9622  138.4858 H        16        0    0.0000
    218 H         111.0400  108.8444  136.6370 H        16        0    0.0000
    219 H         111.6400  107.2436  136.2294 H        16        0    0.0000
    220 C         116.7654  109.1901  136.0027 C.3      17        0    0.0000
    221 C         115.5217  108.3489  135.7038 C.3      17        0    0.0000
    222 C         114.3588  109.0210  136.4454 C.3      17        0    0.0000
    223 C         113.0210  108.8291  135.7256 C.3      17        0    0.0000
    224 C         114.8170  110.4784  136.5636 C.3      17        0    0.0000
    225 C         116.3022  110.3354  136.9126 C.3      17        0    0.0000
    226 C         117.1298  111.6081  136.7133 C.3      17        0    0.0000
    227 H         117.5449  108.5933  136.4885 H        17        0    0.0000
    228 H         117.1846  109.5687  135.0628 H        17        0    0.0000
    229 H         115.6509  107.3123  136.0333 H        17        0    0.0000
    230 H         115.3478  108.3263  134.6213 H        17        0    0.0000
    231 H         114.3007  108.5886  137.4550 H        17        0    0.0000
    232 H         113.1648  108.1643  134.8656 H        17        0    0.0000
    233 H         112.6620  109.7860  135.3289 H        17        0    0.0000
    234 H         114.2649  111.0191  137.3389 H        17        0    0.0000
    235 H         114.6862  111.0097  135.6126 H        17        0    0.0000
    236 H         116.3864  109.9993  137.9563 H        17        0    0.0000
    237 H         116.6214  112.2876  136.0192 H        17        0    0.0000
    238 H         118.0904  111.3469  136.2534 H        17        0    0.0000
    239 C         118.2131  115.8945  137.3128 C.3      18        0    0.0000
    240 C         118.0208  114.4865  136.7444 C.3      18        0    0.0000
    241 C         118.3991  113.5033  137.8666 C.3      18        0    0.0000
    242 C         117.4074  112.3479  138.0507 C.3      18        0    0.0000
    243 C         118.5139  114.3787  139.1187 C.3      18        0    0.0000
    244 C         119.0263  115.7270  138.6010 C.3      18        0    0.0000
    245 C         120.5479  115.7241  138.3604 C.3      18        0    0.0000
    246 H         118.6737  116.5685  136.5843 H        18        0    0.0000
    247 H         117.2291  116.3128  137.5605 H        18        0    0.0000
    248 H         116.9893  114.3599  136.3974 H        18        0    0.0000
    249 H         118.6750  114.3321  135.8783 H        18        0    0.0000
    250 H         119.3946  113.0929  137.6446 H        18        0    0.0000
    251 H         117.8183  111.6275  138.7681 H        18        0    0.0000
    252 H         116.4655  112.7155  138.4738 H        18        0    0.0000
    253 H         119.1732  113.9338  139.8711 H        18        0    0.0000
    254 H         117.5278  114.5152  139.5811 H        18        0    0.0000
    255 H         118.7714  116.5174  139.3183 H        18        0    0.0000
    256 H         120.8175  115.0499  137.5400 H        18        0    0.0000
    257 H         121.0575  115.3537  139.2578 H        18        0    0.0000
    258 C         118.3141  119.5977  137.7345 C.3      19        0    0.0000
    259 C         118.7034  118.1244  137.8777 C.3      19        0    0.0000
    260 C         120.0882  117.9695  137.2238 C.3      19        0    0.0000
    261 C         121.0865  117.1513  138.0521 C.3      19        0    0.0000
    262 C         120.5636  119.4072  136.9908 C.3      19        0    0.0000
    263 C         119.2810  120.1964  136.7071 C.3      19        0    0.0000
    264 C         118.7986  120.0306  135.2535 C.3      19        0    0.0000
    265 H         117.2591  119.7164  137.4696 H        19        0    0.0000
    266 H         118.4612  120.0975  138.7005 H        19        0    0.0000
    267 H         118.6973  117.8361  138.9347 H        19        0    0.0000
    268 H         117.9757  117.4858  137.3636 H        19        0    0.0000
    269 H         119.9549  117.4910  136.2430 H        19        0    0.0000
    270 H         122.0270  117.0557  137.4965 H        19        0    0.0000
    271 H         121.3221  117.6693  138.9888 H        19        0    0.0000
    272 H         121.2915  119.4714  136.1756 H        19        0    0.0000
    273 H         121.0435  119.8022  137.8956 H        19        0    0.0000
    274 H         119.4495  121.2603  136.9168 H        19        0    0.0000
    275 H         117.7086  120.1180  135.1858 H        19        0    0.0000
    276 H         119.0606  119.0280  134.8952 H        19        0    0.0000
    277 C         119.4585  121.0719  134.3037 C.3      20        0    0.0000
    278 C         120.7974  120.6130  133.7086 C.3      20        0    0.0000
    279 H         118.7564  121.2356  133.4762 H        20        0    0.0000
    280 H         119.5608  122.0323  134.8224 H        20        0    0.0000
    281 H         120.7677  119.5531  133.4300 H        20        0    0.0000
    282 H         120.9691  121.1761  132.7823 H        20        0    0.0000
    283 C         120.0137  121.1029  137.6943 C.3      21        0    0.0000
    284 C         120.2639  120.3379  136.3955 C.3      21        0    0.0000
    285 C         121.7662  120.4671  136.0900 C.3      21        0    0.0000
    286 C         122.0324  120.8810  134.6367 C.3      21        0    0.0000
    287 C         122.2927  121.4661  137.1320 C.3      21        0    0.0000
    288 C         121.3844  121.2768  138.3535 C.3      21        0    0.0000
    289 C         121.7526  120.0672  139.2319 C.3      21        0    0.0000
    290 H         119.6022  122.0907  137.4506 H        21        0    0.0000
    291 H         119.2842  120.5980  138.3353 H        21        0    0.0000
    292 H         119.6302  120.7306  135.5928 H        21        0    0.0000
    293 H         120.0042  119.2804  136.5226 H        21        0    0.0000
    294 H         122.2330  119.4893  136.2749 H        21        0    0.0000
    295 H         122.9098  120.3534  134.2450 H        21        0    0.0000
    296 H         122.2657  121.9520  134.6023 H        21        0    0.0000
    297 H         123.3520  121.3061  137.3553 H        21        0    0.0000
    298 H         122.1866  122.4941  136.7616 H        21        0    0.0000
    299 H         121.3854  122.1849  138.9699 H        21        0    0.0000
    300 H         122.3214  119.3226  138.6647 H        21        0    0.0000
    301 H         120.8335  119.5709  139.5663 H        21        0    0.0000
    302 C         125.3086  122.6696  141.5632 C.3      22        0    0.0000
    303 C         124.9264  121.3653  140.8652 C.3      22        0    0.0000
    304 C         123.5629  121.6071  140.1948 C.3      22        0    0.0000
    305 C         122.5590  120.4858  140.4938 C.3      22        0    0.0000
    306 C         123.1218  122.9917  140.6938 C.3      22        0    0.0000
    307 C         124.4285  123.7564  140.9404 C.3      22        0    0.0000
    308 C         125.0642  124.3457  139.6679 C.3      22        0    0.0000
    309 H         125.0732  122.5825  142.6316 H        22        0    0.0000
    310 H         126.3799  122.8800  141.4844 H        22        0    0.0000
    311 H         124.9077  120.5388  141.5839 H        22        0    0.0000
    312 H         125.6715  121.1116  140.1019 H        22        0    0.0000
    313 H         123.7260  121.6613  139.1092 H        22        0    0.0000
    314 H         121.8686  120.7943  141.2874 H        22        0    0.0000
    315 H         123.0984  119.6071  140.8675 H        22        0    0.0000
    316 H         122.4587  123.4925  139.9816 H        22        0    0.0000
    317 H         122.5759  122.8989  141.6417 H        22        0    0.0000
    318 H         124.2642  124.5611  141.6683 H        22        0    0.0000
    319 H         124.3141  124.5043  138.8858 H        22        0    0.0000
    320 H         125.7917  123.6313  139.2639 H        22        0    0.0000
    321 C         129.3166  125.1198  138.8783 C.3      23        0    0.0000
    322 C         127.9872  124.4745  139.2770 C.3      23        0    0.0000
    323 C         127.2965  125.4515  140.2453 C.3      23        0    0.0000
    324 C         125.8088  125.6809  139.9518 C.3      23        0    0.0000
    325 C         128.1179  126.7404  140.1378 C.3      23        0    0.0000
    326 C         129.5498  126.2641  139.8708 C.3      23        0    0.0000
    327 C         130.2683  125.8133  141.1567 C.3      23        0    0.0000
    328 H         130.1308  124.3895  138.8472 H        23        0    0.0000
    329 H         129.2184  125.5352  137.8672 H        23        0    0.0000
    330 H         127.3886  124.2666  138.3832 H        23        0    0.0000
    331 H         128.1637  123.5159  139.7787 H        23        0    0.0000
    332 H         127.4070  125.0606  141.2668 H        23        0    0.0000
    333 H         125.3385  126.1647  140.8162 H        23        0    0.0000
    334 H         125.6868  126.3617  139.1014 H        23        0    0.0000
    335 H         128.0355  127.3555  141.0398 H        23        0    0.0000
    336 H         127.7698  127.3457  139.2908 H        23        0    0.0000
    337 H         130.1230  127.0702  139.3956 H        23        0    0.0000
    338 H         130.8540  124.9034  140.9845 H        23        0    0.0000
    339 H         129.5235  125.5721  141.9244 H        23        0    0.0000
    340 C         128.8974  129.8464  140.9330 C.3      24        0    0.0000
    341 C         129.1080  128.4303  141.4505 C.3      24        0    0.0000
    342 C         130.6306  128.3434  141.5979 C.3      24        0    0.0000
    343 C         131.1996  126.9264  141.7185 C.3      24        0    0.0000
    344 C         131.1992  129.1917  140.4436 C.3      24        0    0.0000
    345 C         130.0083  129.9974  139.8887 C.3      24        0    0.0000
    346 C         130.3233  131.4359  139.4672 C.3      24        0    0.0000
    347 H         127.9023  129.9786  140.4970 H        24        0    0.0000
    348 H         129.0057  130.5611  141.7563 H        24        0    0.0000
    349 H         128.5925  128.2614  142.4010 H        24        0    0.0000
    350 H         128.7227  127.7089  140.7215 H        24        0    0.0000
    351 H         130.8909  128.8650  142.5313 H        24        0    0.0000
    352 H         132.1605  126.8804  141.1923 H        24        0    0.0000
    353 H         131.4077  126.7122  142.7735 H        24        0    0.0000
    354 H         131.6348  128.5841  139.6432 H        24        0    0.0000
    355 H         132.0058  129.8295  140.8210 H        24        0    0.0000
    356 H         129.6675  129.4739  138.9826 H        24        0    0.0000
    357 H         129.4238  132.0505  139.5915 H        24        0    0.0000
    358 H         131.0827  131.8489  140.1418 H        24        0    0.0000
    359 C         132.5850  134.9060  137.7406 C.3      25        0    0.0000
    360 C         132.1619  133.6734  138.5250 C.3      25        0    0.0000
    361 C         131.1134  133.0311  137.6145 C.3      25        0    0.0000
    362 C         130.8274  131.5775  137.9996 C.3      25        0    0.0000
    363 C         131.6913  133.2207  136.2000 C.3      25        0    0.0000
    364 C         132.6864  134.3954  136.2977 C.3      25        0    0.0000
    365 C         132.5457  135.4691  135.2113 C.3      25        0    0.0000
    366 H         133.5366  135.3114  138.0986 H        25        0    0.0000
    367 H         131.8257  135.6879  137.8497 H        25        0    0.0000
    368 H         133.0191  133.0056  138.6742 H        25        0    0.0000
    369 H         131.7543  133.9327  139.5069 H        25        0    0.0000
    370 H         130.1868  133.6189  137.6881 H        25        0    0.0000
    371 H         130.0842  131.1452  137.3191 H        25        0    0.0000
    372 H         131.7427  130.9850  137.8831 H        25        0    0.0000
    373 H         132.2291  132.3241  135.8676 H        25        0    0.0000
    374 H         130.8894  133.3961  135.4752 H        25        0    0.0000
    375 H         133.6920  133.9651  136.1792 H        25        0    0.0000
    376 H         133.0254  136.3928  135.5563 H        25        0    0.0000
    377 H         131.4824  135.6997  135.0746 H        25        0    0.0000
    378 C         134.0925  132.0291  131.9306 C.3      26        0    0.0000
    379 C         132.9815  133.0244  132.2740 C.3      26        0    0.0000
    380 C         133.2845  133.5518  133.6879 C.3      26        0    0.0000
    381 C         133.1502  135.0725  133.8337 C.3      26        0    0.0000
    382 C         134.7056  133.0607  133.9823 C.3      26        0    0.0000
    383 C         134.8098  131.7191  133.2491 C.3      26        0    0.0000
    384 C         134.1577  130.5669  134.0366 C.3      26        0    0.0000
    385 H         133.7024  131.1429  131.4212 H        26        0    0.0000
    386 H         134.7982  132.5113  131.2420 H        26        0    0.0000
    387 H         132.9453  133.8200  131.5216 H        26        0    0.0000
    388 H         132.0056  132.5250  132.2644 H        26        0    0.0000
    389 H         132.6003  133.0594  134.3937 H        26        0    0.0000
    390 H         134.1402  135.5350  133.7420 H        26        0    0.0000
    391 H         132.5324  135.4815  133.0259 H        26        0    0.0000
    392 H         134.8949  132.9736  135.0571 H        26        0    0.0000
    393 H         135.4445  133.7607  133.5712 H        26        0    0.0000
    394 H         135.8651  131.4827  133.0626 H        26        0    0.0000
    395 H         133.5918  129.9041  133.3726 H        26        0    0.0000
    396 H         133.4436  130.9787  134.7597 H        26        0    0.0000
    397 C         135.2127  129.7327  134.8195 C.3      27        0    0.0000
    398 C         135.3939  130.1690  136.2804 C.3      27        0    0.0000
    399 H         134.8608  128.6931  134.8158 H        27        0    0.0000
    400 H         136.1665  129.7426  134.2790 H        27        0    0.0000
    401 H         134.4272  130.2946  136.7820 H        27        0    0.0000
    402 H         135.9214  129.3669  136.8123 H        27        0    0.0000
    403 C         135.3200  134.8538  135.0317 C.3      28        0    0.0000
    404 C         134.9863  133.6662  135.9215 C.3      28        0    0.0000
    405 C         135.9460  132.5729  135.4351 C.3      28        0    0.0000
    406 C         136.2528  131.4691  136.4552 C.3      28        0    0.0000
    407 C         137.1758  133.3166  134.8747 C.3      28        0    0.0000
    408 C         136.8485  134.8180  134.9713 C.3      28        0    0.0000
    409 C         137.4009  135.6687  133.8250 C.3      28        0    0.0000
    410 H         134.8812  134.7173  134.0358 H        28        0    0.0000
    411 H         134.9442  135.7944  135.4458 H        28        0    0.0000
    412 H         135.1613  133.9333  136.9693 H        28        0    0.0000
    413 H         133.9389  133.3639  135.8236 H        28        0    0.0000
    414 H         135.4622  132.0781  134.5798 H        28        0    0.0000
    415 H         137.3136  131.2014  136.3814 H        28        0    0.0000
    416 H         136.0980  131.8630  137.4667 H        28        0    0.0000
    417 H         137.3334  133.0111  133.8328 H        28        0    0.0000
    418 H         138.1000  133.0869  135.4154 H        28        0    0.0000
    419 H         137.2397  135.1935  135.9281 H        28        0    0.0000
    420 H         136.6349  136.3683  133.4700 H        28        0    0.0000
    421 H         138.2352  136.2767  134.1945 H        28        0    0.0000
    422 C         138.7120  131.3291  133.9283 C.3      29        0    0.0000
    423 C         138.5406  132.8229  134.1667 C.3      29        0    0.0000
    424 C         137.8554  133.2976  132.8810 C.3      29        0    0.0000
    425 C         137.9010  134.8081  132.6310 C.3      29        0    0.0000
    426 C         138.4450  132.4203  131.7593 C.3      29        0    0.0000
    427 C         139.1797  131.2672  132.4705 C.3      29        0    0.0000
    428 C         139.0610  129.8952  131.7998 C.3      29        0    0.0000
    429 H         139.4419  130.8870  134.6135 H        29        0    0.0000
    430 H         137.7540  130.8186  134.0759 H        29        0    0.0000
    431 H         137.9355  133.0283  135.0551 H        29        0    0.0000
    432 H         139.5215  133.2900  134.3076 H        29        0    0.0000
    433 H         136.7922  133.0273  132.9678 H        29        0    0.0000
    434 H         138.9306  135.1006  132.3928 H        29        0    0.0000
    435 H         137.2945  135.0438  131.7485 H        29        0    0.0000
    436 H         139.1489  132.9634  131.1196 H        29        0    0.0000
    437 H         137.6385  132.0720  131.1050 H        29        0    0.0000
    438 H         140.2496  131.5248  132.4676 H        29        0    0.0000
    439 H         139.4429  129.1281  132.4838 H        29        0    0.0000
    440 H         138.0013  129.6686  131.6323 H        29        0    0.0000
    441 C         143.5346  129.4593  131.0121 C.3      30        0    0.0000
    442 C         142.0931  129.1277  131.3666 C.3      30        0    0.0000
    443 C         141.2968  130.1566  130.5613 C.3      30        0    0.0000
    444 C         139.8184  129.7780  130.4431 C.3      30        0    0.0000
    445 C         142.0506  130.2353  129.2211 C.3      30        0    0.0000
    446 C         143.4799  129.7281  129.5029 C.3      30        0    0.0000
    447 C         144.6105  130.6066  128.9525 C.3      30        0    0.0000
    448 H         144.2148  128.6374  131.2565 H        30        0    0.0000
    449 H         143.8572  130.3403  131.5772 H        30        0    0.0000
    450 H         141.8504  128.1052  131.0524 H        30        0    0.0000
    451 H         141.9065  129.2093  132.4418 H        30        0    0.0000
    452 H         141.3867  131.1310  131.0632 H        30        0    0.0000
    453 H         139.3241  130.4121  129.6975 H        30        0    0.0000
    454 H         139.7364  128.7458  130.0822 H        30        0    0.0000
    455 H         141.5853  129.5898  128.4657 H        30        0    0.0000
    456 H         142.0273  131.2555  128.8238 H        30        0    0.0000
    457 H         143.5719  128.7540  128.9996 H        30        0    0.0000
    458 H         145.4960  130.4911  129.5887 H        30        0    0.0000
    459 H         144.3092  131.6587  129.0215 H        30        0    0.0000
    460 C         147.0246  132.9751  125.7172 C.3      31        0    0.0000
    461 C         145.9756  131.8747  125.6667 C.3      31        0    0.0000
    462 C         146.2112  131.0950  126.9665 C.3      31        0    0.0000
    463 C         145.0054  130.2976  127.4797 C.3      31        0    0.0000
    464 C         146.8036  132.1133  127.9622 C.3      31        0    0.0000
    465 C         146.9770  133.4270  127.1782 C.3      31        0    0.0000
    466 C         148.2086  134.2478  127.5688 C.3      31        0    0.0000
    467 H         148.0113  132.5712  125.4597 H        31        0    0.0000
    468 H         146.7965  133.7906  125.0241 H        31        0    0.0000
    469 H         144.9768  132.3226  125.6287 H        31        0    0.0000
    470 H         146.0916  131.2401  124.7825 H        31        0    0.0000
    471 H         147.0036  130.3598  126.7609 H        31        0    0.0000
    472 H         144.1427  130.5026  126.8347 H        31        0    0.0000
    473 H         145.2190  129.2261  127.3872 H        31        0    0.0000
    474 H         147.7684  131.7375  128.3252 H        31        0    0.0000
    475 H         146.1726  132.2694  128.8435 H        31        0    0.0000
    476 H         146.0713  134.0341  127.3215 H        31        0    0.0000
    477 H         147.9083  135.1255  128.1534 H        31        0    0.0000
    478 H         148.8554  133.6445  128.2169 H        31        0    0.0000
    479 C         149.0320  134.7118  126.3346 C.3      32        0    0.0000
    480 C         149.4591  136.1856  126.3879 C.3      32        0    0.0000
    481 H         149.9395  134.0950  126.3091 H        32        0    0.0000
    482 H         148.4767  134.4904  125.4156 H        32        0    0.0000
    483 H         148.7539  136.7843  126.9763 H        32        0    0.0000
    484 H         150.4257  136.2415  126.9049 H        32        0    0.0000
    485 C         148.6118  140.3124  124.4074 C.3      33        0    0.0000
    486 C         148.6644  139.1532  125.4013 C.3      33        0    0.0000
    487 C         149.9341  138.3486  125.0738 C.3      33        0    0.0000
    488 C         149.6613  136.8418  124.9782 C.3      33        0    0.0000
    489 C         150.4678  138.9719  123.7747 C.3      33        0    0.0000
    490 C         150.0241  140.4392  123.8303 C.3      33        0    0.0000
    491 C         150.9193  141.3361  124.7047 C.3      33        0    0.0000
    492 H         147.9135  140.0564  123.6002 H        33        0    0.0000
    493 H         148.2470  141.2349  124.8698 H        33        0    0.0000
    494 H         147.7504  138.5527  125.3365 H        33        0    0.0000
    495 H         148.7260  139.5360  126.4269 H        33        0    0.0000
    496 H         150.6642  138.5301  125.8752 H        33        0    0.0000
    497 H         150.4805  136.3390  124.4512 H        33        0    0.0000
    498 H         148.7540  136.6750  124.3852 H        33        0    0.0000
    499 H         151.5515  138.8540  123.6779 H        33        0    0.0000
    500 H         150.0057  138.4900  122.9032 H        33        0    0.0000
    501 H         149.9731  140.8576  122.8170 H        33        0    0.0000
    502 H         151.1829  140.8390  125.6445 H        33        0    0.0000
    503 H         150.3663  142.2439  124.9751 H        33        0    0.0000
    504 C         154.6071  143.0220  126.5986 C.3      34        0    0.0000
    505 C         153.4626  142.1279  126.1466 C.3      34        0    0.0000
    506 C         153.0760  142.7246  124.7918 C.3      34        0    0.0000
    507 C         152.2166  141.7666  123.9633 C.3      34        0    0.0000
    508 C         154.4286  143.0916  124.1541 C.3      34        0    0.0000
    509 C         155.4298  143.2252  125.3200 C.3      34        0    0.0000
    510 C         156.3032  144.4860  125.2963 C.3      34        0    0.0000
    511 H         155.1975  142.5586  127.3953 H        34        0    0.0000
    512 H         154.2047  143.9646  126.9851 H        34        0    0.0000
    513 H         153.8092  141.0928  126.0389 H        34        0    0.0000
    514 H         152.6298  142.1384  126.8563 H        34        0    0.0000
    515 H         152.5181  143.6551  124.9720 H        34        0    0.0000
    516 H         151.9487  142.2301  123.0064 H        34        0    0.0000
    517 H         152.8004  140.8694  123.7258 H        34        0    0.0000
    518 H         154.7745  142.3020  123.4754 H        34        0    0.0000
    519 H         154.3394  144.0056  123.5576 H        34        0    0.0000
    520 H         156.1181  142.3703  125.2417 H        34        0    0.0000
    521 H         156.7111  144.6581  126.2993 H        34        0    0.0000
    522 H         155.6722  145.3514  125.0611 H        34        0    0.0000
    523 C         160.1771  146.7069  125.6114 C.3      35        0    0.0000
    524 C         158.8152  146.0221  125.7528 C.3      35        0    0.0000
    525 C         158.3485  145.6934  124.3286 C.3      35        0    0.0000
    526 C         157.4778  144.4349  124.2774 C.3      35        0    0.0000
    527 C         159.6621  145.5933  123.5461 C.3      35        0    0.0000
    528 C         160.4766  146.7634  124.1077 C.3      35        0    0.0000
    529 C         161.9772  146.6973  123.8102 C.3      35        0    0.0000
    530 H         160.1672  147.7114  126.0480 H        35        0    0.0000
    531 H         160.9354  146.1260  126.1501 H        35        0    0.0000
    532 H         158.0932  146.6686  126.2633 H        35        0    0.0000
    533 H         158.9240  145.1147  126.3589 H        35        0    0.0000
    534 H         157.7781  146.5532  123.9480 H        35        0    0.0000
    535 H         158.0962  143.5575  124.5017 H        35        0    0.0000
    536 H         157.0782  144.2898  123.2668 H        35        0    0.0000
    537 H         159.5035  145.6860  122.4670 H        35        0    0.0000
    538 H         160.1633  144.6367  123.7404 H        35        0    0.0000
    539 H         160.0621  147.7017  123.7109 H        35        0    0.0000
    540 H         162.1660  146.0433  122.9508 H        35        0    0.0000
    541 H         162.4967  146.2515  124.6669 H        35        0    0.0000
    542 C         166.1654  146.9185  123.0358 C.3      36        0    0.0000
    543 C         164.6740  146.7699  122.7692 C.3      36        0    0.0000
    544 C         164.1000  148.0904  123.2931 C.3      36        0    0.0000
    545 C         162.5879  148.0992  123.5371 C.3      36        0    0.0000
    546 C         164.9716  148.4573  124.5101 C.3      36        0    0.0000
    547 C         166.2022  147.5320  124.4393 C.3      36        0    0.0000
    548 C         167.5340  148.1725  124.8421 C.3      36        0    0.0000
    549 H         166.6860  145.9568  122.9935 H        36        0    0.0000
    550 H         166.6113  147.5801  122.2849 H        36        0    0.0000
    551 H         164.4614  146.6223  121.7058 H        36        0    0.0000
    552 H         164.2845  145.9050  123.3173 H        36        0    0.0000
    553 H         164.2966  148.8515  122.5229 H        36        0    0.0000
    554 H         162.3666  148.7519  124.3899 H        36        0    0.0000
    555 H         162.0868  148.5381  122.6662 H        36        0    0.0000
    556 H         164.4552  148.3071  125.4643 H        36        0    0.0000
    557 H         165.2346  149.5196  124.4651 H        36        0    0.0000
    558 H         166.0221  146.7119  125.1507 H        36        0    0.0000
    559 H         167.4942  149.2469  124.6267 H        36        0    0.0000
    560 H         167.6662  148.0732  125.9260 H        36        0    0.0000
    561 C         172.3837  147.7868  124.9810 C.3      37        0    0.0000
    562 C         170.9495  147.7296  125.5127 C.3      37        0    0.0000
    563 C         170.0538  148.3610  124.4318 C.3      37        0    0.0000
    564 C         168.7787  147.5647  124.1283 C.3      37        0    0.0000
    565 C         170.9660  148.4906  123.2077 C.3      37        0    0.0000
    566 C         172.3590  148.7518  123.7906 C.3      37        0    0.0000
    567 C         172.5580  150.2235  124.2000 C.3      37        0    0.0000
    568 H         173.0969  148.0672  125.7620 H        37        0    0.0000
    569 H         172.6696  146.7876  124.6281 H        37        0    0.0000
    570 H         170.6754  146.6938  125.7409 H        37        0    0.0000
    571 H         170.8654  148.2998  126.4453 H        37        0    0.0000
    572 H         169.7780  149.3732  124.7605 H        37        0    0.0000
    573 H         168.5965  147.5692  123.0471 H        37        0    0.0000
    574 H         168.9018  146.5169  124.4254 H        37        0    0.0000
    575 H         170.6330  149.2835  122.5302 H        37        0    0.0000
    576 H         170.9776  147.5517  122.6390 H        37        0    0.0000
    577 H         173.1240  148.4705  123.0558 H        37        0    0.0000
    578 H         173.0894  150.3002  125.1551 H        37        0    0.0000
    579 H         171.5794  150.6975  124.3410 H        37        0    0.0000
    580 C         176.1204  148.6217  122.2185 C.3      38        0    0.0000
    581 C         174.9507  149.0013  123.1137 C.3      38        0    0.0000
    582 C         174.7385  150.4906  122.8141 C.3      38        0    0.0000
    583 C         173.3324  151.0254  123.1142 C.3      38        0    0.0000
    584 C         175.2312  150.6994  121.3673 C.3      38        0    0.0000
    585 C         175.7974  149.3431  120.9084 C.3      38        0    0.0000
    586 C         177.0151  149.4369  119.9858 C.3      38        0    0.0000
    587 H         177.0615  148.9852  122.6489 H        38        0    0.0000
    588 H         176.2000  147.5385  122.0858 H        38        0    0.0000
    589 H         174.0759  148.3978  122.8486 H        38        0    0.0000
    590 H         175.1714  148.8244  124.1711 H        38        0    0.0000
    591 H         175.4277  151.0504  123.4639 H        38        0    0.0000
    592 H         173.4108  152.0699  123.4387 H        38        0    0.0000
    593 H         172.7448  151.0275  122.1885 H        38        0    0.0000
    594 H         176.0070  151.4752  121.3630 H        38        0    0.0000
    595 H         174.4410  151.0379  120.6890 H        38        0    0.0000
    596 H         174.9940  148.7903  120.4000 H        38        0    0.0000
    597 H         177.7288  148.6378  120.2189 H        38        0    0.0000
    598 H         176.6964  149.2811  118.9482 H        38        0    0.0000
    599 C         181.1601  150.6373  118.4487 C.3      39        0    0.0000
    600 C         180.0253  149.9723  119.2151 C.3      39        0    0.0000
    601 C         178.8878  150.9917  119.0937 C.3      39        0    0.0000
    602 C         177.7347  150.8112  120.0857 C.3      39        0    0.0000
    603 C         179.5748  152.3711  119.1172 C.3      39        0    0.0000
    604 C         181.0772  152.0953  118.9121 C.3      39        0    0.0000
    605 C         181.8206  153.1073  118.0348 C.3      39        0    0.0000
    606 H         182.1298  150.1863  118.6813 H        39        0    0.0000
    607 H         180.9878  150.5367  117.3714 H        39        0    0.0000
    608 H         179.7557  149.0022  118.7863 H        39        0    0.0000
    609 H         180.3259  149.8123  120.2564 H        39        0    0.0000
    610 H         178.4568  150.8704  118.0884 H        39        0    0.0000
    611 H         178.1172  150.9351  121.1058 H        39        0    0.0000
    612 H         176.9974  151.6071  119.9269 H        39        0    0.0000
    613 H         179.4263  152.9046  120.0622 H        39        0    0.0000
    614 H         179.1476  153.0062  118.3337 H        39        0    0.0000
    615 H         181.5455  152.1409  119.9069 H        39        0    0.0000
    616 H         182.7150  152.6300  117.6171 H        39        0    0.0000
    617 H         181.1838  153.3811  117.1853 H        39        0    0.0000
    618 C         185.1166  156.6458  118.0468 C.3      40        0    0.0000
    619 C         183.6910  156.5386  118.5935 C.3      40        0    0.0000
    620 C         183.0264  155.3588  117.8615 C.3      40        0    0.0000
    621 C         182.2485  154.4076  118.7792 C.3      40        0    0.0000
    622 C         184.1816  154.6579  117.1393 C.3      40        0    0.0000
    623 C         185.1524  155.7872  116.7778 C.3      40        0    0.0000
    624 C         184.7168  156.5546  115.5151 C.3      40        0    0.0000
    625 H         185.4134  157.6864  117.8844 H        40        0    0.0000
    626 H         185.8107  156.2250  118.7855 H        40        0    0.0000
    627 H         183.7155  156.4055  119.6807 H        40        0    0.0000
    628 H         183.1349  157.4618  118.3927 H        40        0    0.0000
    629 H         182.3446  155.7649  117.1008 H        40        0    0.0000
    630 H         182.8791  154.1290  119.6319 H        40        0    0.0000
    631 H         181.3639  154.9088  119.1887 H        40        0    0.0000
    632 H         183.8378  154.0964  116.2646 H        40        0    0.0000
    633 H         184.6797  153.9492  117.8135 H        40        0    0.0000
    634 H         186.1574  155.3737  116.6254 H        40        0    0.0000
    635 H         184.1021  157.4241  115.7728 H        40        0    0.0000
    636 H         184.0983  155.9018  114.8877 H        40        0    0.0000
    637 C         185.1027  159.1405  111.7432 C.3      41        0    0.0000
    638 C         184.5656  158.3432  112.9343 C.3      41        0    0.0000
    639 C         185.5726  157.2086  113.1945 C.3      41        0    0.0000
    640 C         185.9391  157.0201  114.6718 C.3      41        0    0.0000
    641 C         186.7870  157.5708  112.3336 C.3      41        0    0.0000
    642 C         186.1948  158.2734  111.1073 C.3      41        0    0.0000
    643 C         185.6480  157.2777  110.0668 C.3      41        0    0.0000
    644 H         184.3051  159.4246  111.0502 H        41        0    0.0000
    645 H         185.5524  160.0703  112.1145 H        41        0    0.0000
    646 H         184.4352  159.0032  113.7990 H        41        0    0.0000
    647 H         183.5819  157.9207  112.6981 H        41        0    0.0000
    648 H         185.1458  156.2728  112.8060 H        41        0    0.0000
    649 H         186.7286  156.2638  114.7564 H        41        0    0.0000
    650 H         186.3442  157.9499  115.0874 H        41        0    0.0000
    651 H         187.3823  156.6898  112.0728 H        41        0    0.0000
    652 H         187.4433  158.2666  112.8724 H        41        0    0.0000
    653 H         186.9603  158.9061  110.6403 H        41        0    0.0000
    654 H         185.2995  157.7969  109.1671 H        41        0    0.0000
    655 H         184.7823  156.7515  110.4864 H        41        0    0.0000
    656 C         188.8298  158.2017  111.9153 C.3      42        0    0.0000
    657 C         187.9291  156.9749  111.7804 C.3      42        0    0.0000
    658 C         188.0719  156.4803  110.3306 C.3      42        0    0.0000
    659 C         186.7135  156.2157  109.6681 C.3      42        0    0.0000
    660 C         188.9106  157.5602  109.6297 C.3      42        0    0.0000
    661 C         189.8009  158.1456  110.7332 C.3      42        0    0.0000
    662 C         191.0446  157.2975  111.0563 C.3      42        0    0.0000
    663 H         188.2128  159.1057  111.8332 H        42        0    0.0000
    664 H         189.3307  158.2396  112.8877 H        42        0    0.0000
    665 H         186.8966  157.2282  112.0448 H        42        0    0.0000
    666 H         188.2546  156.1881  112.4710 H        42        0    0.0000
    667 H         188.6493  155.5451  110.3489 H        42        0    0.0000
    668 H         186.3515  155.2142  109.9280 H        42        0    0.0000
    669 H         186.8321  156.2364  108.5781 H        42        0    0.0000
    670 H         189.4802  157.1552  108.7876 H        42        0    0.0000
    671 H         188.2599  158.3518  109.2359 H        42        0    0.0000
    672 H         190.1162  159.1621  110.4653 H        42        0    0.0000
    673 H         190.9024  156.2534  110.7574 H        42        0    0.0000
    674 H         191.2067  157.2934  112.1410 H        42        0    0.0000
    675 C         192.3270  157.8608  110.3811 C.3      43        0    0.0000
    676 C         193.3591  156.7868  110.0087 C.3      43        0    0.0000
    677 H         192.0059  158.3592  109.4574 H        43        0    0.0000
    678 H         192.7698  158.6358  111.0177 H        43        0    0.0000
    679 H         193.8453  156.3746  110.9007 H        43        0    0.0000
    680 H         192.8273  155.9554  109.5287 H        43        0    0.0000
    681 C         197.5248  155.0874  109.4283 C.3      44        0    0.0000
    682 C         196.2386  155.6861  109.9801 C.3      44        0    0.0000
    683 C         195.5648  156.2601  108.7294 C.3      44        0    0.0000
    684 C         194.4479  157.2750  108.9914 C.3      44        0    0.0000
    685 C         196.7197  156.7581  107.8386 C.3      44        0    0.0000
    686 C         198.0044  156.1575  108.4422 C.3      44        0    0.0000
    687 C         199.0560  155.6943  107.4294 C.3      44        0    0.0000
    688 H         198.2586  154.8970  110.2176 H        44        0    0.0000
    689 H         197.3063  154.1363  108.9302 H        44        0    0.0000
    690 H         195.6162  154.9334  110.4738 H        44        0    0.0000
    691 H         196.4775  156.4642  110.7134 H        44        0    0.0000
    692 H         195.1003  155.4140  108.2007 H        44        0    0.0000
    693 H         194.8904  158.2048  109.3683 H        44        0    0.0000
    694 H         193.9577  157.5216  108.0422 H        44        0    0.0000
    695 H         196.8009  157.8502  107.8179 H        44        0    0.0000
    696 H         196.5470  156.4416  106.8043 H        44        0    0.0000
    697 H         198.4749  156.9534  109.0392 H        44        0    0.0000
    698 H         199.9778  155.4350  107.9635 H        44        0    0.0000
    699 H         198.7051  154.7765  106.9428 H        44        0    0.0000
    700 C         198.6127  160.2872  107.3686 C.3      45        0    0.0000
    701 C         198.8771  158.8197  107.7152 C.3      45        0    0.0000
    702 C         198.5413  158.0123  106.4544 C.3      45        0    0.0000
    703 C         199.3933  156.7460  106.3302 C.3      45        0    0.0000
    704 C         198.7409  159.0294  105.3260 C.3      45        0    0.0000
    705 C         198.1283  160.3054  105.9128 C.3      45        0    0.0000
    706 C         198.5200  161.5944  105.1851 C.3      45        0    0.0000
    707 H         197.8652  160.7279  108.0368 H        45        0    0.0000
    708 H         199.5377  160.8635  107.4909 H        45        0    0.0000
    709 H         198.2676  158.4931  108.5646 H        45        0    0.0000
    710 H         199.9280  158.6961  108.0028 H        45        0    0.0000
    711 H         197.4769  157.7389  106.4960 H        45        0    0.0000
    712 H         200.4533  157.0131  106.4167 H        45        0    0.0000
    713 H         199.2610  156.2943  105.3401 H        45        0    0.0000
    714 H         198.2383  158.7211  104.4038 H        45        0    0.0000
    715 H         199.8070  159.1699  105.1077 H        45        0    0.0000
    716 H         197.0335  160.2001  105.9148 H        45        0    0.0000
    717 H         199.0635  162.2634  105.8625 H        45        0    0.0000
    718 H         197.6119  162.1263  104.8769 H        45        0    0.0000
    719 C         202.3429  159.0018  104.3933 C.3      46        0    0.0000
    720 C         200.9182  159.4011  104.7461 C.3      46        0    0.0000
    721 C         200.8096  160.8397  104.2249 C.3      46        0    0.0000
    722 C         199.3847  161.3216  103.9239 C.3      46        0    0.0000
    723 C         201.8023  160.9329  103.0479 C.3      46        0    0.0000
    724 C         202.5197  159.5721  102.9845 C.3      46        0    0.0000
    725 C         203.9919  159.6432  102.5713 C.3      46        0    0.0000
    726 H         203.0502  159.4578  105.0967 H        46        0    0.0000
    727 H         202.4831  157.9169  104.4212 H        46        0    0.0000
    728 H         200.2146  158.7264  104.2465 H        46        0    0.0000
    729 H         200.7319  159.3412  105.8230 H        46        0    0.0000
    730 H         201.1984  161.4981  105.0160 H        46        0    0.0000
    731 H         199.4385  162.2416  103.3296 H        46        0    0.0000
    732 H         198.8780  160.5748  103.3013 H        46        0    0.0000
    733 H         202.5117  161.7468  103.2431 H        46        0    0.0000
    734 H         201.3163  161.1585  102.0928 H        46        0    0.0000
    735 H         201.9722  158.9280  102.2811 H        46        0    0.0000
    736 H         204.6259  159.2112  103.3547 H        46        0    0.0000
    737 H         204.1454  159.0354  101.6716 H        46        0    0.0000
    738 C         201.4846  163.4553  102.1051 C.3      47        0    0.0000
    739 C         202.0945  162.0777  101.8868 C.3      47        0    0.0000
    740 C         203.4294  162.1729  102.6329 C.3      47        0    0.0000
    741 C         204.4594  161.0963  102.2775 C.3      47        0    0.0000
    742 C         203.8975  163.6290  102.4428 C.3      47        0    0.0000
    743 C         202.6770  164.3942  101.8949 C.3      47        0    0.0000
    744 C         202.4953  165.8178  102.4302 C.3      47        0    0.0000
    745 H         200.6718  163.6588  101.4010 H        47        0    0.0000
    746 H         201.0799  163.5241  103.1209 H        47        0    0.0000
    747 H         201.4575  161.2811  102.2835 H        47        0    0.0000
    748 H         202.2333  161.9002  100.8147 H        47        0    0.0000
    749 H         203.2058  162.0501  103.7034 H        47        0    0.0000
    750 H         204.7094  161.1775  101.2130 H        47        0    0.0000
    751 H         205.3846  161.2879  102.8339 H        47        0    0.0000
    752 H         204.7323  163.7194  101.7394 H        47        0    0.0000
    753 H         204.2550  164.0263  103.3989 H        47        0    0.0000
    754 H         202.8234  164.4855  100.8080 H        47        0    0.0000
    755 H         201.6474  166.2875  101.9178 H        47        0    0.0000
    756 H         202.2334  165.7700  103.4939 H        47        0    0.0000
    757 C         205.8332  165.3239   99.4300 C.3      48        0    0.0000
    758 C         204.5363  165.3375  100.2247 C.3      48        0    0.0000
    759 C         204.9156  166.0715  101.5172 C.3      48        0    0.0000
    760 C         203.7481  166.7293  102.2637 C.3      48        0    0.0000
    761 C         206.0738  167.0162  101.1358 C.3      48        0    0.0000
    762 C         206.3881  166.7318   99.6556 C.3      48        0    0.0000
    763 C         207.8696  166.8345   99.2846 C.3      48        0    0.0000
    764 H         206.5142  164.5615   99.8275 H        48        0    0.0000
    765 H         205.6620  165.1115   98.3703 H        48        0    0.0000
    766 H         203.7652  165.8704   99.6580 H        48        0    0.0000
    767 H         204.1675  164.3260  100.4221 H        48        0    0.0000
    768 H         205.3364  165.3199  102.2017 H        48        0    0.0000
    769 H         204.0912  167.0393  103.2580 H        48        0    0.0000
    770 H         203.4538  167.6432  101.7341 H        48        0    0.0000
    771 H         206.9385  166.7966  101.7744 H        48        0    0.0000
    772 H         205.8317  168.0740  101.2832 H        48        0    0.0000
    773 H         205.8065  167.4338   99.0404 H        48        0    0.0000
    774 H         207.9858  166.8568   98.1945 H        48        0    0.0000
    775 H         208.2731  167.7811   99.6633 H        48        0    0.0000
    776 C         209.9003  163.7744   97.4585 C.3      49        0    0.0000
    777 C         208.4916  164.3084   97.7316 C.3      49        0    0.0000
    778 C         208.3120  164.3091   99.2536 C.3      49        0    0.0000
    779 C         208.7124  165.6647   99.8657 C.3      49        0    0.0000
    780 C         209.1978  163.1322   99.6821 C.3      49        0    0.0000
    781 C         210.4427  163.2528   98.7995 C.3      49        0    0.0000
    782 C         211.2177  161.9339   98.7012 C.3      49        0    0.0000
    783 H         209.8573  162.9924   96.6918 H        49        0    0.0000
    784 H         210.5466  164.5713   97.0732 H        49        0    0.0000
    785 H         207.7609  163.6247   97.2811 H        49        0    0.0000
    786 H         208.3320  165.2918   97.2776 H        49        0    0.0000
    787 H         207.2640  164.1009   99.5046 H        49        0    0.0000
    788 H         209.7692  165.8606   99.6472 H        49        0    0.0000
    789 H         208.6163  165.6520  100.9566 H        49        0    0.0000
    790 H         208.6746  162.1895   99.4750 H        49        0    0.0000
    791 H         209.4506  163.1393  100.7465 H        49        0    0.0000
    792 H         211.0996  164.0219   99.2297 H        49        0    0.0000
    793 H         212.1383  162.0748   98.1230 H        49        0    0.0000
    794 H         210.6130  161.1957   98.1614 H        49        0    0.0000
    795 C         211.5676  161.3624  100.1052 C.3      50        0    0.0000
    796 C         210.7150  160.1537  100.5169 C.3      50        0    0.0000
    797 H         212.6163  161.0412  100.0641 H        50        0    0.0000
    798 H         211.5138  162.1619  100.8534 H        50        0    0.0000
    799 H         210.1179  159.7818   99.6761 H        50        0    0.0000
    800 H         211.3937  159.3402  100.8037 H        50        0    0.0000
    801 C         207.3447  163.1953  102.5929 C.3      51        0    0.0000
    802 C         207.6033  161.7730  102.1199 C.3      51        0    0.0000
    803 C         209.0874  161.7884  101.7323 C.3      51        0    0.0000
    804 C         209.7832  160.4214  101.7493 C.3      51        0    0.0000
    805 C         209.7379  162.8732  102.6153 C.3      51        0    0.0000
    806 C         208.5920  163.5136  103.4199 C.3      51        0    0.0000
    807 C         208.7488  165.0150  103.6733 C.3      51        0    0.0000
    808 H         207.2564  163.8711  101.7335 H        51        0    0.0000
    809 H         206.4264  163.2700  103.1834 H        51        0    0.0000
    810 H         207.3968  161.0724  102.9363 H        51        0    0.0000
    811 H         206.9630  161.5006  101.2751 H        51        0    0.0000
    812 H         209.1448  162.1520  100.6955 H        51        0    0.0000
    813 H         210.3802  160.3375  102.6652 H        51        0    0.0000
    814 H         209.0228  159.6329  101.7967 H        51        0    0.0000
    815 H         210.2300  163.6111  101.9696 H        51        0    0.0000
    816 H         210.5070  162.4766  103.2865 H        51        0    0.0000
    817 H         208.5114  162.9859  104.3815 H        51        0    0.0000
    818 H         209.2594  165.1861  104.6285 H        51        0    0.0000
    819 H         209.3859  165.4494  102.8938 H        51        0    0.0000
    820 C         205.8544  167.4344  101.3044 C.3      52        0    0.0000
    821 C         207.3403  167.1858  101.5773 C.3      52        0    0.0000
    822 C         207.5108  167.1861  103.1004 C.3      52        0    0.0000
    823 C         207.3867  165.7641  103.6795 C.3      52        0    0.0000
    824 C         206.4064  168.1524  103.5471 C.3      52        0    0.0000
    825 C         205.2138  167.8063  102.6519 C.3      52        0    0.0000
    826 C         204.1915  168.9461  102.5760 C.3      52        0    0.0000
    827 H         205.7433  168.2266  100.5553 H        52        0    0.0000
    828 H         205.3815  166.5336  100.8965 H        52        0    0.0000
    829 H         207.9215  168.0117  101.1478 H        52        0    0.0000
    830 H         207.6945  166.2648  101.1033 H        52        0    0.0000
    831 H         208.4952  167.5933  103.3644 H        52        0    0.0000
    832 H         206.6754  165.1893  103.0740 H        52        0    0.0000
    833 H         206.9852  165.7836  104.6982 H        52        0    0.0000
    834 H         206.7316  169.1851  103.3649 H        52        0    0.0000
    835 H         206.1561  168.0706  104.6090 H        52        0    0.0000
    836 H         204.7221  166.9121  103.0599 H        52        0    0.0000
    837 H         203.7789  169.1550  103.5699 H        52        0    0.0000
    838 H         203.3518  168.6402  101.9409 H        52        0    0.0000
    839 C         204.8153  170.2445  101.9883 C.3      53        0    0.0000
    840 C         203.8679  171.4526  102.0006 C.3      53        0    0.0000
    841 H         205.0756  170.0265  100.9446 H        53        0    0.0000
    842 H         205.7554  170.4695  102.5054 H        53        0    0.0000
    843 H         203.1795  171.3369  102.8475 H        53        0    0.0000
    844 H         204.4157  172.3875  102.1675 H        53        0    0.0000
    845 C         204.7610  171.3468   97.3929 C.3      54        0    0.0000
    846 C         204.3772  170.7746   98.7490 C.3      54        0    0.0000
    847 C         203.7955  171.9863   99.4800 C.3      54        0    0.0000
    848 C         202.9830  171.5815  100.7125 C.3      54        0    0.0000
    849 C         202.9913  172.7196   98.3909 C.3      54        0    0.0000
    850 C         203.5789  172.2588   97.0411 C.3      54        0    0.0000
    851 C         203.8912  173.3802   96.0421 C.3      54        0    0.0000
    852 H         204.9082  170.5614   96.6449 H        54        0    0.0000
    853 H         205.6999  171.9037   97.4830 H        54        0    0.0000
    854 H         203.6246  169.9858   98.6290 H        54        0    0.0000
    855 H         205.2388  170.3495   99.2729 H        54        0    0.0000
    856 H         204.6284  172.6357   99.7871 H        54        0    0.0000
    857 H         202.1839  172.3098  100.8946 H        54        0    0.0000
    858 H         202.4939  170.6185  100.5237 H        54        0    0.0000
    859 H         201.9295  172.4460   98.4299 H        54        0    0.0000
    860 H         203.0446  173.8038   98.5349 H        54        0    0.0000
    861 H         202.8148  171.6254   96.5663 H        54        0    0.0000
    862 H         203.7079  173.0149   95.0247 H        54        0    0.0000
    863 H         204.9591  173.6221   96.1013 H        54        0    0.0000
    864 C         201.4430  174.9107   99.6762 C.3      55        0    0.0000
    865 C         202.5604  174.3877   98.7865 C.3      55        0    0.0000
    866 C         202.0122  174.5870   97.3678 C.3      55        0    0.0000
    867 C         203.0723  174.6844   96.2635 C.3      55        0    0.0000
    868 C         201.0409  175.7818   97.4601 C.3      55        0    0.0000
    869 C         200.9889  176.1770   98.9473 C.3      55        0    0.0000
    870 C         199.6213  176.6635   99.4330 C.3      55        0    0.0000
    871 H         200.6308  174.1761   99.7370 H        55        0    0.0000
    872 H         201.7922  175.1205  100.6918 H        55        0    0.0000
    873 H         203.4715  174.9696   98.9629 H        55        0    0.0000
    874 H         202.7890  173.3374   98.9927 H        55        0    0.0000
    875 H         201.4006  173.7032   97.1327 H        55        0    0.0000
    876 H         202.5807  174.9541   95.3212 H        55        0    0.0000
    877 H         203.7640  175.5011   96.5018 H        55        0    0.0000
    878 H         200.0538  175.4680   97.0981 H        55        0    0.0000
    879 H         201.3480  176.6337   96.8442 H        55        0    0.0000
    880 H         201.7397  176.9618   99.1201 H        55        0    0.0000
    881 H         198.9386  175.8140   99.5537 H        55        0    0.0000
    882 H         199.7306  177.1223  100.4229 H        55        0    0.0000
    883 C         198.9810  177.7020   98.4696 C.3      56        0    0.0000
    884 C         197.9645  178.6345   99.1437 C.3      56        0    0.0000
    885 H         198.4566  177.1317   97.6922 H        56        0    0.0000
    886 H         199.7694  178.2709   97.9628 H        56        0    0.0000
    887 H         197.0120  178.0958   99.2280 H        56        0    0.0000
    888 H         198.2723  178.8887  100.1647 H        56        0    0.0000
    889 C         196.8504  183.0986  100.1171 C.3      57        0    0.0000
    890 C         197.3402  181.6540  100.2438 C.3      57        0    0.0000
    891 C         196.7002  180.8691   99.0847 C.3      57        0    0.0000
    892 C         197.6721  179.9474   98.3376 C.3      57        0    0.0000
    893 C         196.1045  181.9486   98.1754 C.3      57        0    0.0000
    894 C         195.6763  183.0661   99.1326 C.3      57        0    0.0000
    895 C         194.3250  182.7726   99.8114 C.3      57        0    0.0000
    896 H         196.5987  183.5302  101.0905 H        57        0    0.0000
    897 H         197.6580  183.7095   99.6937 H        57        0    0.0000
    898 H         198.4352  181.6263  100.2232 H        57        0    0.0000
    899 H         197.0234  181.2265  101.2023 H        57        0    0.0000
    900 H         195.8727  180.2692   99.4897 H        57        0    0.0000
    901 H         197.2389  179.6716   97.3688 H        57        0    0.0000
    902 H         198.6119  180.4711   98.1280 H        57        0    0.0000
    903 H         195.2755  181.5648   97.5719 H        57        0    0.0000
    904 H         196.8678  182.3307   97.4852 H        57        0    0.0000
    905 H         195.6115  184.0149   98.5850 H        57        0    0.0000
    906 H         194.3484  181.8142  100.3419 H        57        0    0.0000
    907 H         193.5430  182.6944   99.0468 H        57        0    0.0000
    908 C         193.9202  183.9007  100.8042 C.3      58        0    0.0000
    909 C         192.6376  183.6053  101.5948 C.3      58        0    0.0000
    910 H         194.7455  184.0036  101.5203 H        58        0    0.0000
    911 H         193.8484  184.8551  100.2695 H        58        0    0.0000
    912 H         191.7631  183.5633  100.9350 H        58        0    0.0000
    913 H         192.7378  182.6102  102.0467 H        58        0    0.0000
    914 C         191.9740  182.7255  105.4275 C.3      59        0    0.0000
    915 C         191.2793  182.7171  104.0631 C.3      59        0    0.0000
    916 C         191.1605  184.1808  103.6244 C.3      59        0    0.0000
    917 C         192.3667  184.6099  102.7679 C.3      59        0    0.0000
    918 C         191.0441  184.9106  104.9686 C.3      59        0    0.0000
    919 C         192.0456  184.1940  105.8778 C.3      59        0    0.0000
    920 C         191.7469  184.4176  107.3646 C.3      59        0    0.0000
    921 H         191.4146  182.0987  106.1313 H        59        0    0.0000
    922 H         192.9828  182.3042  105.3489 H        59        0    0.0000
    923 H         190.2746  182.2917  104.1806 H        59        0    0.0000
    924 H         191.8093  182.0908  103.3383 H        59        0    0.0000
    925 H         190.2416  184.3206  103.0405 H        59        0    0.0000
    926 H         193.2618  184.6494  103.4003 H        59        0    0.0000
    927 H         192.2270  185.6172  102.3612 H        59        0    0.0000
    928 H         190.0246  184.7932  105.3587 H        59        0    0.0000
    929 H         191.2481  185.9836  104.9034 H        59        0    0.0000
    930 H         193.0517  184.5759  105.6543 H        59        0    0.0000
    931 H         192.1470  185.3840  107.6928 H        59        0    0.0000
    932 H         192.2526  183.6463  107.9575 H        59        0    0.0000
    933 C         188.0532  183.0116  104.8638 C.3      60        0    0.0000
    934 C         189.3748  183.0127  105.6166 C.3      60        0    0.0000
    935 C         189.3318  184.3221  106.4146 C.3      60        0    0.0000
    936 C         190.2214  184.3575  107.6637 C.3      60        0    0.0000
    937 C         187.8367  184.6130  106.6583 C.3      60        0    0.0000
    938 C         187.0597  183.5112  105.9148 C.3      60        0    0.0000
    939 C         185.7398  183.9692  105.2896 C.3      60        0    0.0000
    940 H         188.1027  183.6967  104.0087 H        60        0    0.0000
    941 H         187.7951  182.0158  104.4907 H        60        0    0.0000
    942 H         189.4259  182.1334  106.2679 H        60        0    0.0000
    943 H         190.2321  182.9760  104.9371 H        60        0    0.0000
    944 H         189.7014  185.1162  105.7488 H        60        0    0.0000
    945 H         189.9483  185.2291  108.2704 H        60        0    0.0000
    946 H         190.0148  183.4716  108.2759 H        60        0    0.0000
    947 H         187.5967  185.6063  106.2588 H        60        0    0.0000
    948 H         187.5690  184.6255  107.7201 H        60        0    0.0000
    949 H         186.8655  182.6916  106.6220 H        60        0    0.0000
    950 H         185.8270  183.9931  104.1969 H        60        0    0.0000
    951 H         184.9547  183.2413  105.5267 H        60        0    0.0000
    952 C         187.9189  187.0640  107.9095 C.3      61        0    0.0000
    953 C         187.5046  185.9969  106.8930 C.3      61        0    0.0000
    954 C         186.0006  185.7703  107.0953 C.3      61        0    0.0000
    955 C         185.2929  185.3686  105.7982 C.3      61        0    0.0000
    956 C         185.5263  187.0973  107.6969 C.3      61        0    0.0000
    957 C         186.6480  187.4377  108.6837 C.3      61        0    0.0000
    958 C         186.6617  188.8940  109.1566 C.3      61        0    0.0000
    959 H         188.6959  186.6921  108.5860 H        61        0    0.0000
    960 H         188.3357  187.9296  107.3807 H        61        0    0.0000
    961 H         188.0649  185.0670  107.0381 H        61        0    0.0000
    962 H         187.7239  186.3535  105.8794 H        61        0    0.0000
    963 H         185.8716  184.9782  107.8473 H        61        0    0.0000
    964 H         185.5144  186.1093  105.0206 H        61        0    0.0000
    965 H         184.2059  185.3751  105.9404 H        61        0    0.0000
    966 H         184.5580  186.9966  108.1973 H        61        0    0.0000
    967 H         185.4362  187.8697  106.9228 H        61        0    0.0000
    968 H         186.5665  186.7678  109.5521 H        61        0    0.0000
    969 H         187.5615  189.4036  108.7928 H        61        0    0.0000
    970 H         186.7057  188.9184  110.2521 H        61        0    0.0000
    971 C         185.4019  189.6769  108.6953 C.3      62        0    0.0000
    972 C         184.5138  190.1652  109.8487 C.3      62        0    0.0000
    973 H         185.7595  190.5566  108.1450 H        62        0    0.0000
    974 H         184.8314  189.0713  107.9814 H        62        0    0.0000
    975 H         184.5025  189.4456  110.6757 H        62        0    0.0000
    976 H         184.9490  191.0917  110.2448 H        62        0    0.0000
    977 C         182.0810  188.8259  106.3013 C.3      63        0    0.0000
    978 C         183.1246  188.9301  107.4125 C.3      63        0    0.0000
    979 C         182.3693  189.3339  108.6905 C.3      63        0    0.0000
    980 C         183.0432  190.5025  109.4217 C.3      63        0    0.0000
    981 C         180.9371  189.6317  108.2207 C.3      63        0    0.0000
    982 C         180.7246  188.7228  107.0035 C.3      63        0    0.0000
    983 C         180.3747  187.2659  107.3576 C.3      63        0    0.0000
    984 H         182.1084  189.7447  105.7016 H        63        0    0.0000
    985 H         182.2838  187.9911  105.6232 H        63        0    0.0000
    986 H         183.9071  189.6451  107.1357 H        63        0    0.0000
    987 H         183.6136  187.9608  107.5651 H        63        0    0.0000
    988 H         182.3448  188.4606  109.3576 H        63        0    0.0000
    989 H         182.4588  190.7874  110.3043 H        63        0    0.0000
    990 H         183.0663  191.3777  108.7613 H        63        0    0.0000
    991 H         180.2020  189.4659  109.0143 H        63        0    0.0000
    992 H         180.8497  190.6797  107.9057 H        63        0    0.0000
    993 H         179.9408  189.1355  106.3555 H        63        0    0.0000
    994 H         181.2783  186.6608  107.4888 H        63        0    0.0000
    995 H         179.8151  186.8172  106.5278 H        63        0    0.0000
    996 C         176.6235  189.6083  108.4482 C.3      64        0    0.0000
    997 C         177.7849  188.8572  107.7921 C.3      64        0    0.0000
    998 C         178.7449  188.4735  108.9258 C.3      64        0    0.0000
    999 C         179.4958  187.1708  108.6368 C.3      64        0    0.0000
   1000 C         177.8307  188.4245  110.1546 C.3      64        0    0.0000
   1001 C         176.9301  189.6473  109.9511 C.3      64        0    0.0000
   1002 C         175.6588  189.6525  110.8045 C.3      64        0    0.0000
   1003 H         176.5209  190.6203  108.0419 H        64        0    0.0000
   1004 H         175.6848  189.0795  108.2437 H        64        0    0.0000
   1005 H         178.2896  189.4764  107.0427 H        64        0    0.0000
   1006 H         177.4001  187.9701  107.2747 H        64        0    0.0000
   1007 H         179.4653  189.2941  109.0571 H        64        0    0.0000
   1008 H         178.7721  186.3578  108.5030 H        64        0    0.0000
   1009 H         180.1246  186.8965  109.4920 H        64        0    0.0000
   1010 H         178.3978  188.4852  111.0889 H        64        0    0.0000
   1011 H         177.2404  187.4997  110.1685 H        64        0    0.0000
   1012 H         177.5175  190.5538  110.1575 H        64        0    0.0000
   1013 H         174.8783  190.2511  110.3205 H        64        0    0.0000
   1014 H         175.8717  190.1305  111.7682 H        64        0    0.0000
   1015 C         175.1207  188.2201  111.0719 C.3      65        0    0.0000
   1016 C         173.6930  187.9840  110.5585 C.3      65        0    0.0000
   1017 H         175.1184  188.0806  112.1605 H        65        0    0.0000
   1018 H         175.8191  187.4807  110.6627 H        65        0    0.0000
   1019 H         173.0360  187.8526  111.4278 H        65        0    0.0000
   1020 H         173.3170  188.8559  110.0104 H        65        0    0.0000
   1021 C         170.0457  185.4936  109.3213 C.3      66        0    0.0000
   1022 C         171.5136  185.2736  108.9476 C.3      66        0    0.0000
   1023 C         172.1830  186.6596  108.9583 C.3      66        0    0.0000
   1024 C         173.5381  186.6976  109.6754 C.3      66        0    0.0000
   1025 C         171.1486  187.5782  109.6165 C.3      66        0    0.0000
   1026 C         169.7941  186.9999  109.1930 C.3      66        0    0.0000
   1027 C         169.3921  187.4275  107.7687 C.3      66        0    0.0000
   1028 H         169.3741  184.8803  108.7129 H        66        0    0.0000
   1029 H         169.8982  185.1920  110.3662 H        66        0    0.0000
   1030 H         171.9777  184.5714  109.6488 H        66        0    0.0000
   1031 H         171.5905  184.8310  107.9476 H        66        0    0.0000
   1032 H         172.3160  186.9864  107.9170 H        66        0    0.0000
   1033 H         173.6310  185.8177  110.3230 H        66        0    0.0000
   1034 H         174.3573  186.6454  108.9490 H        66        0    0.0000
   1035 H         171.2776  188.6230  109.3157 H        66        0    0.0000
   1036 H         171.2394  187.5343  110.7096 H        66        0    0.0000
   1037 H         169.0198  187.3189  109.9023 H        66        0    0.0000
   1038 H         168.8993  186.6081  107.2338 H        66        0    0.0000
   1039 H         170.2925  187.6844  107.1981 H        66        0    0.0000
   1040 C         164.8834  187.8288  107.7415 C.3      67        0    0.0000
   1041 C         166.3089  187.2921  107.8609 C.3      67        0    0.0000
   1042 C         167.1428  188.3998  108.5276 C.3      67        0    0.0000
   1043 C         168.4559  188.6705  107.7815 C.3      67        0    0.0000
   1044 C         166.2003  189.6113  108.5960 C.3      67        0    0.0000
   1045 C         164.7937  189.0103  108.7108 C.3      67        0    0.0000
   1046 C         164.4165  188.5548  110.1323 C.3      67        0    0.0000
   1047 H         164.7246  188.1892  106.7171 H        67        0    0.0000
   1048 H         164.1344  187.0535  107.9311 H        67        0    0.0000
   1049 H         166.6923  187.0040  106.8759 H        67        0    0.0000
   1050 H         166.3239  186.3928  108.4879 H        67        0    0.0000
   1051 H         167.3736  188.0771  109.5527 H        67        0    0.0000
   1052 H         168.9800  189.5227  108.2296 H        67        0    0.0000
   1053 H         168.2324  188.9465  106.7439 H        67        0    0.0000
   1054 H         166.4509  190.2800  109.4254 H        67        0    0.0000
   1055 H         166.2657  190.1975  107.6701 H        67        0    0.0000
   1056 H         164.0453  189.7278  108.3506 H        67        0    0.0000
   1057 H         164.5877  189.3520  110.8636 H        67        0    0.0000
   1058 H         165.0607  187.7171  110.4256 H        67        0    0.0000
   1059 C         162.9390  188.0783  110.2200 C.3      68        0    0.0000
   1060 C         162.7794  186.5538  110.3099 C.3      68        0    0.0000
   1061 H         162.5175  188.5191  111.1325 H        68        0    0.0000
   1062 H         162.3674  188.4903  109.3801 H        68        0    0.0000
   1063 H         163.7435  186.0445  110.1962 H        68        0    0.0000
   1064 H         162.4117  186.3087  111.3145 H        68        0    0.0000
   1065 C         160.9998  189.0720  108.5559 C.3      69        0    0.0000
   1066 C         160.6652  188.2064  109.7737 C.3      69        0    0.0000
   1067 C         160.4434  186.7831  109.2504 C.3      69        0    0.0000
   1068 C         161.7450  185.9604  109.2919 C.3      69        0    0.0000
   1069 C         159.8995  187.0407  107.8394 C.3      69        0    0.0000
   1070 C         160.7447  188.2034  107.3129 C.3      69        0    0.0000
   1071 C         160.0654  188.9394  106.1524 C.3      69        0    0.0000
   1072 H         160.3846  189.9788  108.5663 H        69        0    0.0000
   1073 H         162.0480  189.3908  108.5860 H        69        0    0.0000
   1074 H         159.7353  188.5753  110.2248 H        69        0    0.0000
   1075 H         161.4407  188.2672  110.5440 H        69        0    0.0000
   1076 H         159.6830  186.2773  109.8592 H        69        0    0.0000
   1077 H         162.2037  185.9612  108.2957 H        69        0    0.0000
   1078 H         161.5452  184.9131  109.5427 H        69        0    0.0000
   1079 H         158.8444  187.3368  107.9052 H        69        0    0.0000
   1080 H         159.9540  186.1672  107.1828 H        69        0    0.0000
   1081 H         161.7080  187.8029  106.9669 H        69        0    0.0000
   1082 H         160.2975  188.4473  105.2008 H        69        0    0.0000
   1083 H         160.4608  189.9599  106.0874 H        69        0    0.0000
   1084 C         157.3943  185.6291  107.6509 C.3      70        0    0.0000
   1085 C         158.4198  186.4931  106.9303 C.3      70        0    0.0000
   1086 C         157.9441  187.9167  107.2382 C.3      70        0    0.0000
   1087 C         158.5225  189.0124  106.3376 C.3      70        0    0.0000
   1088 C         156.4057  187.8311  107.2761 C.3      70        0    0.0000
   1089 C         156.0699  186.3277  107.3257 C.3      70        0    0.0000
   1090 C         154.8874  185.9443  108.2206 C.3      70        0    0.0000
   1091 H         157.4109  184.5937  107.2968 H        70        0    0.0000
   1092 H         157.6046  185.6244  108.7261 H        70        0    0.0000
   1093 H         159.4357  186.3112  107.2943 H        70        0    0.0000
   1094 H         158.3988  186.2747  105.8569 H        70        0    0.0000
   1095 H         158.2730  188.1482  108.2626 H        70        0    0.0000
   1096 H         158.0463  188.9540  105.3517 H        70        0    0.0000
   1097 H         158.2639  189.9929  106.7548 H        70        0    0.0000
   1098 H         155.9324  188.2831  106.3978 H        70        0    0.0000
   1099 H         156.0299  188.3802  108.1462 H        70        0    0.0000
   1100 H         155.7960  186.0313  106.3019 H        70        0    0.0000
   1101 H         154.9041  184.8614  108.3915 H        70        0    0.0000
   1102 H         155.0107  186.4199  109.2008 H        70        0    0.0000
   1103 C         153.4942  186.3388  107.6446 C.3      71        0    0.0000
   1104 C         152.4135  185.2650  107.8356 C.3      71        0    0.0000
   1105 H         153.6302  186.4971  106.5671 H        71        0    0.0000
   1106 H         153.1794  187.3009  108.0655 H        71        0    0.0000
   1107 H         152.9042  184.2833  107.8304 H        71        0    0.0000
   1108 H         151.9208  185.3639  108.8100 H        71        0    0.0000
   1109 C         151.3344  185.2377  106.6983 C.3      72        0    0.0000
   1110 C         150.6744  183.8661  106.4973 C.3      72        0    0.0000
   1111 H         151.8488  185.5078  105.7671 H        72        0    0.0000
   1112 H         150.5859  186.0177  106.8804 H        72        0    0.0000
   1113 H         151.4690  183.1264  106.3352 H        72        0    0.0000
   1114 H         150.1302  183.5499  107.3949 H        72        0    0.0000
   1115 C         150.7373  186.4094  102.7301 C.3      73        0    0.0000
   1116 C         151.0035  185.6118  104.0095 C.3      73        0    0.0000
   1117 C         149.6354  185.1276  104.5076 C.3      73        0    0.0000
   1118 C         149.7260  183.7919  105.2508 C.3      73        0    0.0000
   1119 C         148.7923  185.0907  103.2286 C.3      73        0    0.0000
   1120 C         149.2195  186.3740  102.5086 C.3      73        0    0.0000
   1121 C         148.8466  186.4272  101.0244 C.3      73        0    0.0000
   1122 H         151.0974  187.4401  102.8189 H        73        0    0.0000
   1123 H         151.2759  185.9481  101.8937 H        73        0    0.0000
   1124 H         151.5026  186.2254  104.7671 H        73        0    0.0000
   1125 H         151.6690  184.7701  103.7831 H        73        0    0.0000
   1126 H         149.2231  185.8962  105.1775 H        73        0    0.0000
   1127 H         150.1068  183.0229  104.5682 H        73        0    0.0000
   1128 H         148.7291  183.4659  105.5698 H        73        0    0.0000
   1129 H         147.7195  185.0815  103.4461 H        73        0    0.0000
   1130 H         149.0301  184.2047  102.6267 H        73        0    0.0000
   1131 H         148.7767  187.2339  103.0320 H        73        0    0.0000
   1132 H         149.7260  186.6790  100.4201 H        73        0    0.0000
   1133 H         148.1134  187.2267  100.8639 H        73        0    0.0000
   1134 C         149.2932  182.3163  102.8938 C.3      74        0    0.0000
   1135 C         149.5333  183.6820  102.2654 C.3      74        0    0.0000
   1136 C         148.1991  183.9789  101.5732 C.3      74        0    0.0000
   1137 C         148.2379  185.0902  100.5197 C.3      74        0    0.0000
   1138 C         147.6854  182.6124  101.0789 C.3      74        0    0.0000
   1139 C         148.5558  181.5557  101.7868 C.3      74        0    0.0000
   1140 C         147.8215  180.2889  102.2365 C.3      74        0    0.0000
   1141 H         150.2300  181.8259  103.1760 H        74        0    0.0000
   1142 H         148.6816  182.4266  103.7960 H        74        0    0.0000
   1143 H         149.7849  184.4384  103.0152 H        74        0    0.0000
   1144 H         150.3629  183.6205  101.5524 H        74        0    0.0000
   1145 H         147.5016  184.3144  102.3555 H        74        0    0.0000
   1146 H         148.8167  184.7438   99.6552 H        74        0    0.0000
   1147 H         147.2193  185.2800  100.1612 H        74        0    0.0000
   1148 H         147.7733  182.4917   99.9938 H        74        0    0.0000
   1149 H         146.6204  182.5144  101.3153 H        74        0    0.0000
   1150 H         149.3166  181.2343  101.0595 H        74        0    0.0000
   1151 H         148.5594  179.5277  102.5164 H        74        0    0.0000
   1152 H         147.2413  180.5124  103.1396 H        74        0    0.0000
   1153 C         146.8651  179.6880  101.1630 C.3      75        0    0.0000
   1154 C         145.5443  179.1525  101.7341 C.3      75        0    0.0000
   1155 H         146.6290  180.4974  100.4604 H        75        0    0.0000
   1156 H         147.3924  178.9178  100.5880 H        75        0    0.0000
   1157 H         145.7002  178.2251  102.2976 H        75        0    0.0000
   1158 H         145.1571  179.8916  102.4471 H        75        0    0.0000
   1159 C         142.2861  181.9117  100.4872 C.3      76        0    0.0000
   1160 C         143.6112  181.3318  100.9796 C.3      76        0    0.0000
   1161 C         144.0191  180.2449   99.9700 C.3      76        0    0.0000
   1162 C         144.4263  178.9344  100.6565 C.3      76        0    0.0000
   1163 C         142.8107  180.1104   99.0306 C.3      76        0    0.0000
   1164 C         142.1651  181.5018   99.0173 C.3      76        0    0.0000
   1165 C         142.8600  182.5105   98.0845 C.3      76        0    0.0000
   1166 H         141.4661  181.4571  101.0577 H        76        0    0.0000
   1167 H         142.2272  182.9935  100.6429 H        76        0    0.0000
   1168 H         143.5044  180.9476  101.9999 H        76        0    0.0000
   1169 H         144.3794  182.1135  101.0086 H        76        0    0.0000
   1170 H         144.8723  180.6257   99.3911 H        76        0    0.0000
   1171 H         144.7677  178.2050   99.9129 H        76        0    0.0000
   1172 H         143.5501  178.4969  101.1501 H        76        0    0.0000
   1173 H         143.1018  179.7621   98.0348 H        76        0    0.0000
   1174 H         142.0925  179.3853   99.4354 H        76        0    0.0000
   1175 H         141.1057  181.4245   98.7412 H        76        0    0.0000
   1176 H         142.5083  182.4051   97.0526 H        76        0    0.0000
   1177 H         143.9374  182.3062   98.0707 H        76        0    0.0000
   1178 C         139.0983  184.4577   97.6117 C.3      77        0    0.0000
   1179 C         140.4538  185.1261   97.8537 C.3      77        0    0.0000
   1180 C         141.1883  184.2664   98.8980 C.3      77        0    0.0000
   1181 C         142.6552  183.9782   98.5555 C.3      77        0    0.0000
   1182 C         140.3504  182.9877   98.9977 C.3      77        0    0.0000
   1183 C         138.9103  183.4500   98.7510 C.3      77        0    0.0000
   1184 C         138.2687  184.0692  100.0072 C.3      77        0    0.0000
   1185 H         138.2905  185.1915   97.5334 H        77        0    0.0000
   1186 H         139.1361  183.9180   96.6568 H        77        0    0.0000
   1187 H         141.0036  185.2113   96.9099 H        77        0    0.0000
   1188 H         140.3144  186.1425   98.2401 H        77        0    0.0000
   1189 H         141.1385  184.7834   99.8670 H        77        0    0.0000
   1190 H         142.9791  184.6500   97.7516 H        77        0    0.0000
   1191 H         143.2977  184.1837   99.4194 H        77        0    0.0000
   1192 H         140.4771  182.4886   99.9638 H        77        0    0.0000
   1193 H         140.6451  182.2759   98.2156 H        77        0    0.0000
   1194 H         138.3040  182.6003   98.4123 H        77        0    0.0000
   1195 H         137.3228  184.5661   99.7645 H        77        0    0.0000
   1196 H         138.9362  184.8371  100.4159 H        77        0    0.0000
   1197 C         139.0229  179.3748  101.5387 C.3      78        0    0.0000
   1198 C         139.0849  180.8185  102.0137 C.3      78        0    0.0000
   1199 C         138.5961  181.6170  100.7987 C.3      78        0    0.0000
   1200 C         138.0213  183.0038  101.1142 C.3      78        0    0.0000
   1201 C         137.6536  180.6694  100.0285 C.3      78        0    0.0000
   1202 C         137.6992  179.3225  100.7731 C.3      78        0    0.0000
   1203 C         137.6021  178.0892   99.8718 C.3      78        0    0.0000
   1204 H         139.8710  179.1556  100.8785 H        78        0    0.0000
   1205 H         139.0465  178.6675  102.3733 H        78        0    0.0000
   1206 H         138.4304  180.9463  102.8827 H        78        0    0.0000
   1207 H         140.0976  181.1072  102.3122 H        78        0    0.0000
   1208 H         139.4701  181.7842  100.1515 H        78        0    0.0000
   1209 H         136.9409  182.9122  101.2778 H        78        0    0.0000
   1210 H         138.4520  183.3643  102.0559 H        78        0    0.0000
   1211 H         138.0159  180.5657   98.9981 H        78        0    0.0000
   1212 H         136.6258  181.0424   99.9669 H        78        0    0.0000
   1213 H         136.8785  179.3073  101.5051 H        78        0    0.0000
   1214 H         137.9026  177.1916  100.4253 H        78        0    0.0000
   1215 H         136.5576  177.9398   99.5734 H        78        0    0.0000
   1216 C         135.7801  179.7388   96.3837 C.3      79        0    0.0000
   1217 C         136.5531  179.7055   97.6947 C.3      79        0    0.0000
   1218 C         137.7279  178.7753   97.3752 C.3      79        0    0.0000
   1219 C         138.4736  178.2165   98.5909 C.3      79        0    0.0000
   1220 C         137.1595  177.7230   96.4030 C.3      79        0    0.0000
   1221 C         135.7958  178.2723   95.9404 C.3      79        0    0.0000
   1222 C         135.4498  178.0266   94.4686 C.3      79        0    0.0000
   1223 H         134.7619  180.1167   96.5189 H        79        0    0.0000
   1224 H         136.2929  180.3911   95.6683 H        79        0    0.0000
   1225 H         136.8884  180.7024   97.9971 H        79        0    0.0000
   1226 H         135.9151  179.3053   98.4903 H        79        0    0.0000
   1227 H         138.4591  179.3689   96.8059 H        79        0    0.0000
   1228 H         138.8776  177.2285   98.3400 H        79        0    0.0000
   1229 H         139.3325  178.8611   98.8119 H        79        0    0.0000
   1230 H         137.0196  176.7426   96.8710 H        79        0    0.0000
   1231 H         137.8609  177.5728   95.5752 H        79        0    0.0000
   1232 H         135.0282  177.7518   96.5328 H        79        0    0.0000
   1233 H         136.1071  178.6383   93.8393 H        79        0    0.0000
   1234 H         135.6612  176.9797   94.2206 H        79        0    0.0000
   1235 C         133.9689  178.3395   94.0980 C.3      80        0    0.0000
   1236 C         133.4427  177.5366   92.8997 C.3      80        0    0.0000
   1237 H         133.9255  179.4052   93.8393 H        80        0    0.0000
   1238 H         133.3312  178.2047   94.9795 H        80        0    0.0000
   1239 H         133.8176  178.0087   91.9826 H        80        0    0.0000
   1240 H         133.8304  176.5112   92.9054 H        80        0    0.0000
   1241 C         130.0236  177.9266   96.0458 C.3      81        0    0.0000
   1242 C         131.2765  178.1166   95.1869 C.3      81        0    0.0000
   1243 C         131.2103  177.0493   94.0866 C.3      81        0    0.0000
   1244 C         131.8789  177.5096   92.7883 C.3      81        0    0.0000
   1245 C         129.7092  176.7660   93.9662 C.3      81        0    0.0000
   1246 C         129.2524  176.7524   95.4288 C.3      81        0    0.0000
   1247 C         127.7395  176.8818   95.6260 C.3      81        0    0.0000
   1248 H         130.2817  177.7214   97.0903 H        81        0    0.0000
   1249 H         129.4291  178.8480   96.0332 H        81        0    0.0000
   1250 H         132.1898  178.0107   95.7823 H        81        0    0.0000
   1251 H         131.2796  179.1286   94.7647 H        81        0    0.0000
   1252 H         131.7096  176.1426   94.4582 H        81        0    0.0000
   1253 H         131.5296  178.5188   92.5393 H        81        0    0.0000
   1254 H         131.5835  176.8589   91.9569 H        81        0    0.0000
   1255 H         129.5118  175.8120   93.4671 H        81        0    0.0000
   1256 H         129.2032  177.5609   93.4040 H        81        0    0.0000
   1257 H         129.6084  175.8240   95.8987 H        81        0    0.0000
   1258 H         127.4011  177.8808   95.3270 H        81        0    0.0000
   1259 H         127.5028  176.7735   96.6912 H        81        0    0.0000
   1260 C         126.9461  175.8081   94.8319 C.3      82        0    0.0000
   1261 C         125.4502  176.1207   94.6835 C.3      82        0    0.0000
   1262 H         127.3866  175.7670   93.8275 H        82        0    0.0000
   1263 H         127.1046  174.8221   95.2842 H        82        0    0.0000
   1264 H         124.8857  175.7980   95.5662 H        82        0    0.0000
   1265 H         125.3349  177.2103   94.6184 H        82        0    0.0000
   1266 C         122.7118  177.5990   91.1347 C.3      83        0    0.0000
   1267 C         123.6844  177.5828   92.3165 C.3      83        0    0.0000
   1268 C         123.4902  176.2316   93.0278 C.3      83        0    0.0000
   1269 C         124.7987  175.5186   93.3906 C.3      83        0    0.0000
   1270 C         122.6275  175.4124   92.0625 C.3      83        0    0.0000
   1271 C         121.7303  176.4466   91.3744 C.3      83        0    0.0000
   1272 C         120.5242  176.8495   92.2440 C.3      83        0    0.0000
   1273 H         122.2285  178.5737   91.0183 H        83        0    0.0000
   1274 H         123.2740  177.4066   90.2120 H        83        0    0.0000
   1275 H         124.7095  177.7329   91.9604 H        83        0    0.0000
   1276 H         123.4584  178.4031   93.0079 H        83        0    0.0000
   1277 H         122.9072  176.4046   93.9437 H        83        0    0.0000
   1278 H         124.5963  174.4553   93.5657 H        83        0    0.0000
   1279 H         125.5086  175.5738   92.5573 H        83        0    0.0000
   1280 H         122.0586  174.6337   92.5810 H        83        0    0.0000
   1281 H         123.2581  174.9181   91.3121 H        83        0    0.0000
   1282 H         121.3728  176.0450   90.4176 H        83        0    0.0000
   1283 H         120.7759  177.6844   92.9072 H        83        0    0.0000
   1284 H         120.2408  176.0069   92.8859 H        83        0    0.0000
   1285 C         117.7635  180.3080   92.7895 C.3      84        0    0.0000
   1286 C         118.7526  179.1604   93.0076 C.3      84        0    0.0000
   1287 C         118.2208  177.9618   92.2016 C.3      84        0    0.0000
   1288 C         119.2902  177.2344   91.3774 C.3      84        0    0.0000
   1289 C         117.1111  178.5526   91.3259 C.3      84        0    0.0000
   1290 C         116.5093  179.6787   92.1733 C.3      84        0    0.0000
   1291 C         115.5151  179.1542   93.2267 C.3      84        0    0.0000
   1292 H         117.5714  180.8613   93.7137 H        84        0    0.0000
   1293 H         118.1983  181.0179   92.0742 H        84        0    0.0000
   1294 H         119.7579  179.4683   92.6992 H        84        0    0.0000
   1295 H         118.8058  178.8995   94.0710 H        84        0    0.0000
   1296 H         117.7603  177.2515   92.9031 H        84        0    0.0000
   1297 H         118.8619  176.3175   90.9551 H        84        0    0.0000
   1298 H         119.6095  177.8545   90.5319 H        84        0    0.0000
   1299 H         116.3728  177.7982   91.0351 H        84        0    0.0000
   1300 H         117.5347  178.9741   90.4051 H        84        0    0.0000
   1301 H         116.0023  180.4001   91.5200 H        84        0    0.0000
   1302 H         115.5006  179.7988   94.1126 H        84        0    0.0000
   1303 H         115.8312  178.1592   93.5618 H        84        0    0.0000
   1304 C         115.7812  179.0629   89.4031 C.3      85        0    0.0000
   1305 C         115.4338  178.2414   90.6437 C.3      85        0    0.0000
   1306 C         114.0719  178.7530   91.1442 C.3      85        0    0.0000
   1307 C         114.0736  179.0363   92.6522 C.3      85        0    0.0000
   1308 C         113.7739  179.9852   90.2760 C.3      85        0    0.0000
   1309 C         114.4703  179.7028   88.9387 C.3      85        0    0.0000
   1310 C         113.6812  178.7709   88.0011 C.3      85        0    0.0000
   1311 H         116.4881  179.8530   89.6872 H        85        0    0.0000
   1312 H         116.2665  178.4574   88.6311 H        85        0    0.0000
   1313 H         116.2256  178.3314   91.3954 H        85        0    0.0000
   1314 H         115.3549  177.1790   90.3847 H        85        0    0.0000
   1315 H         113.3209  177.9807   90.9259 H        85        0    0.0000
   1316 H         113.5259  178.2522   93.1877 H        85        0    0.0000
   1317 H         113.5461  179.9784   92.8441 H        85        0    0.0000
   1318 H         112.6993  180.1635   90.1716 H        85        0    0.0000
   1319 H         114.2139  180.8843   90.7270 H        85        0    0.0000
   1320 H         114.6833  180.6446   88.4170 H        85        0    0.0000
   1321 H         113.4457  177.8203   88.4916 H        85        0    0.0000
   1322 H         114.3002  178.5282   87.1288 H        85        0    0.0000
   1323 C         110.2611  181.9707   89.1872 C.3      86        0    0.0000
   1324 C         110.7545  181.4107   87.8508 C.3      86        0    0.0000
   1325 C         112.1503  180.8163   88.1110 C.3      86        0    0.0000
   1326 C         112.3691  179.4309   87.4906 C.3      86        0    0.0000
   1327 C         112.2794  180.7989   89.6375 C.3      86        0    0.0000
   1328 C         111.4868  182.0240   90.1057 C.3      86        0    0.0000
   1329 C         112.2901  183.3312   89.9681 C.3      86        0    0.0000
   1330 H         109.7591  182.9350   89.0643 H        86        0    0.0000
   1331 H         109.5242  181.2762   89.6107 H        86        0    0.0000
   1332 H         110.0418  180.6718   87.4680 H        86        0    0.0000
   1333 H         110.8240  182.2105   87.1044 H        86        0    0.0000
   1334 H         112.9016  181.5131   87.7129 H        86        0    0.0000
   1335 H         111.5271  178.7789   87.7519 H        86        0    0.0000
   1336 H         112.3898  179.5000   86.3969 H        86        0    0.0000
   1337 H         113.3252  180.8201   89.9609 H        86        0    0.0000
   1338 H         111.8236  179.8891   90.0492 H        86        0    0.0000
   1339 H         111.1851  181.8892   91.1522 H        86        0    0.0000
   1340 H         112.2562  183.7103   88.9407 H        86        0    0.0000
   1341 H         113.3437  183.1372   90.2015 H        86        0    0.0000
   1342 C         111.7736  184.4315   90.9400 C.3      87        0    0.0000
   1343 C         110.7997  185.4274   90.2940 C.3      87        0    0.0000
   1344 H         111.2443  183.9149   91.7508 H        87        0    0.0000
   1345 H         112.6247  184.9472   91.4000 H        87        0    0.0000
   1346 H         110.9536  186.4424   90.6787 H        87        0    0.0000
   1347 H         111.0138  185.4638   89.2182 H        87        0    0.0000
   1348 C         109.2903  185.0295   90.4420 C.3      88        0    0.0000
   1349 C         108.3405  186.2273   90.5856 C.3      88        0    0.0000
   1350 H         109.0154  184.4845   89.5298 H        88        0    0.0000
   1351 H         109.1736  184.3258   91.2746 H        88        0    0.0000
   1352 H         108.6926  186.9256   91.3539 H        88        0    0.0000
   1353 H         108.3417  186.7784   89.6364 H        88        0    0.0000
   1354 C         104.5355  188.7956   90.3497 C.3      89        0    0.0000
   1355 C         105.8871  188.2299   90.7627 C.3      89        0    0.0000
   1356 C         105.8161  186.7808   90.2701 C.3      89        0    0.0000
   1357 C         106.8520  185.8289   90.8758 C.3      89        0    0.0000
   1358 C         104.3437  186.3626   90.4507 C.3      89        0    0.0000
   1359 C         103.5663  187.6668   90.7158 C.3      89        0    0.0000
   1360 C         102.1812  187.7534   90.0675 C.3      89        0    0.0000
   1361 H         104.3026  189.7252   90.8782 H        89        0    0.0000
   1362 H         104.5355  189.0064   89.2746 H        89        0    0.0000
   1363 H         106.7167  188.7791   90.3068 H        89        0    0.0000
   1364 H         105.9965  188.2903   91.8512 H        89        0    0.0000
   1365 H         106.0076  186.8026   89.1866 H        89        0    0.0000
   1366 H         106.7048  185.7835   91.9614 H        89        0    0.0000
   1367 H         106.6769  184.8171   90.4915 H        89        0    0.0000
   1368 H         104.1969  185.6723   91.2884 H        89        0    0.0000
   1369 H         103.9998  185.8369   89.5534 H        89        0    0.0000
   1370 H         103.4064  187.7238   91.8031 H        89        0    0.0000
   1371 H         101.9476  188.8047   89.8612 H        89        0    0.0000
   1372 H         102.2062  187.2402   89.0989 H        89        0    0.0000
   1373 C         101.0327  187.1448   90.9270 C.3      90        0    0.0000
   1374 C          99.6637  187.7988   90.6917 C.3      90        0    0.0000
   1375 H         100.9563  186.0857   90.6493 H        90        0    0.0000
   1376 H         101.3107  187.1716   91.9871 H        90        0    0.0000
   1377 H          99.5104  188.0332   89.6317 H        90        0    0.0000
   1378 H          98.8878  187.0734   90.9680 H        90        0    0.0000
   1379 C          96.7979  191.8220   91.5007 C.3      91        0    0.0000
   1380 C          97.5820  190.7709   92.2714 C.3      91        0    0.0000
   1381 C          98.1584  189.8736   91.1689 C.3      91        0    0.0000
   1382 C          99.4130  189.0815   91.5580 C.3      91        0    0.0000
   1383 C          98.3054  190.7790   89.9286 C.3      91        0    0.0000
   1384 C          97.7237  192.1479   90.3269 C.3      91        0    0.0000
   1385 C          96.9922  192.8844   89.2021 C.3      91        0    0.0000
   1386 H          95.8462  191.4045   91.1502 H        91        0    0.0000
   1387 H          96.5810  192.7024   92.1135 H        91        0    0.0000
   1388 H          98.3668  191.2582   92.8600 H        91        0    0.0000
   1389 H          96.9443  190.2109   92.9626 H        91        0    0.0000
   1390 H          97.3860  189.1293   90.9240 H        91        0    0.0000
   1391 H         100.2878  189.7375   91.4748 H        91        0    0.0000
   1392 H          99.3393  188.7887   92.6120 H        91        0    0.0000
   1393 H          97.7447  190.3369   89.0956 H        91        0    0.0000
   1394 H          99.3425  190.8826   89.5929 H        91        0    0.0000
   1395 H          98.5465  192.7744   90.7010 H        91        0    0.0000
   1396 H          97.6871  193.5414   88.6656 H        91        0    0.0000
   1397 H          96.6221  192.1547   88.4720 H        91        0    0.0000
   1398 C          95.7913  193.7239   89.7212 C.3      92        0    0.0000
   1399 C          95.2633  194.7500   88.7085 C.3      92        0    0.0000
   1400 H          96.1448  194.2693   90.6057 H        92        0    0.0000
   1401 H          94.9934  193.0547   90.0639 H        92        0    0.0000
   1402 H          96.1086  195.3658   88.3755 H        92        0    0.0000
   1403 H          94.8624  194.2582   87.8144 H        92        0    0.0000
   1404 C          94.1917  195.7323   89.2965 C.3      93        0    0.0000
   1405 C          93.0585  196.0768   88.3195 C.3      93        0    0.0000
   1406 H          94.7184  196.6617   89.5485 H        93        0    0.0000
   1407 H          93.7986  195.3298   90.2375 H        93        0    0.0000
   1408 H          93.3981  196.9030   87.6819 H        93        0    0.0000
   1409 H          92.8381  195.2357   87.6517 H        93        0    0.0000
   1410 C          89.6860  198.6969   86.8552 C.3      94        0    0.0000
   1411 C          90.8983  197.7704   86.9356 C.3      94        0    0.0000
   1412 C          90.5847  196.7269   88.0217 C.3      94        0    0.0000
   1413 C          91.7392  196.5568   89.0179 C.3      94        0    0.0000
   1414 C          89.2729  197.2091   88.6601 C.3      94        0    0.0000
   1415 C          88.5366  197.9496   87.5364 C.3      94        0    0.0000
   1416 C          87.7943  197.0261   86.5532 C.3      94        0    0.0000
   1417 H          89.9030  199.6147   87.4165 H        94        0    0.0000
   1418 H          89.4619  198.9930   85.8256 H        94        0    0.0000
   1419 H          91.8058  198.3465   87.1471 H        94        0    0.0000
   1420 H          91.0539  197.2657   85.9748 H        94        0    0.0000
   1421 H          90.3986  195.7658   87.5219 H        94        0    0.0000
   1422 H          91.4604  195.8484   89.8067 H        94        0    0.0000
   1423 H          91.9372  197.5166   89.5100 H        94        0    0.0000
   1424 H          88.6932  196.3820   89.0814 H        94        0    0.0000
   1425 H          89.4826  197.9127   89.4763 H        94        0    0.0000
   1426 H          87.8268  198.6711   87.9607 H        94        0    0.0000
   1427 H          88.4512  196.2332   86.1797 H        94        0    0.0000
   1428 H          87.4786  197.6087   85.6793 H        94        0    0.0000
   1429 C          86.3846  194.4448   89.8312 C.3      95        0    0.0000
   1430 C          85.5251  195.6355   89.3981 C.3      95        0    0.0000
   1431 C          86.4692  196.6294   88.7126 C.3      95        0    0.0000
   1432 C          86.5262  196.3921   87.1917 C.3      95        0    0.0000
   1433 C          87.7922  196.3735   89.4455 C.3      95        0    0.0000
   1434 C          87.8500  194.8522   89.6050 C.3      95        0    0.0000
   1435 C          88.8089  194.4189   90.7197 C.3      95        0    0.0000
   1436 H          86.1754  194.1991   90.8785 H        95        0    0.0000
   1437 H          86.1423  193.5575   89.2351 H        95        0    0.0000
   1438 H          85.0935  196.1036   90.2919 H        95        0    0.0000
   1439 H          84.6886  195.3264   88.7631 H        95        0    0.0000
   1440 H          86.1285  197.6558   88.9002 H        95        0    0.0000
   1441 H          85.6432  196.8433   86.7233 H        95        0    0.0000
   1442 H          86.4935  195.3233   86.9549 H        95        0    0.0000
   1443 H          87.7617  196.8583   90.4301 H        95        0    0.0000
   1444 H          88.6679  196.7614   88.9166 H        95        0    0.0000
   1445 H          88.1876  194.4165   88.6541 H        95        0    0.0000
   1446 H          88.4505  194.7773   91.6917 H        95        0    0.0000
   1447 H          89.7909  194.8775   90.5540 H        95        0    0.0000
   1448 H          88.9295  193.3360   90.7525 H        95        0    0.0000
   1449 H         103.2492   60.3484  158.5707 H         0        0    0.0000
@<TRIPOS>BOND
     1     1     2      1
     2     1     6      1
     3     1     8      1
     4     1     9      1
     5     2     3      1
     6     2    10      1
     7     2    11      1
     8     3     4      1
     9     3     5      1
    10     3    12      1
    11     4    13      1
    12     4    14      1
    13     4  1449      H
    14     5     6      1
    15     5    15      1
    16     5    16      1
    17     6     7      1
    18     6    17      1
    19     7    18      1
    20     7    19      1
    21     7    23      1
    22    20    21      1
    23    20    25      1
    24    20    27      1
    25    20    28      1
    26    21    22      1
    27    21    29      1
    28    21    30      1
    29    22    23      1
    30    22    24      1
    31    22    31      1
    32    23    32      1
    33    23    33      1
    34    24    25      1
    35    24    34      1
    36    24    35      1
    37    25    26      1
    38    25    36      1
    39    26    37      1
    40    26    38      1
    41    26    39      1
    42    39    40      1
    43    39    41      1
    44    39    42      1
    45    40    43      1
    46    40    44      1
    47    40    48      1
    48    45    46      1
    49    45    50      1
    50    45    52      1
    51    45    53      1
    52    46    47      1
    53    46    54      1
    54    46    55      1
    55    47    48      1
    56    47    49      1
    57    47    56      1
    58    48    57      1
    59    48    58      1
    60    49    50      1
    61    49    59      1
    62    49    60      1
    63    50    51      1
    64    50    61      1
    65    51    62      1
    66    51    63      1
    67    51    64      1
    68    64    65      1
    69    64    66      1
    70    64    67      1
    71    65    68      1
    72    65    69      1
    73    65    73      1
    74    70    71      1
    75    70    75      1
    76    70    77      1
    77    70    78      1
    78    71    72      1
    79    71    79      1
    80    71    80      1
    81    72    73      1
    82    72    74      1
    83    72    81      1
    84    73    82      1
    85    73    83      1
    86    74    75      1
    87    74    84      1
    88    74    85      1
    89    75    76      1
    90    75    86      1
    91    76    87      1
    92    76    88      1
    93    76    92      1
    94    89    90      1
    95    89    94      1
    96    89    96      1
    97    89    97      1
    98    90    91      1
    99    90    98      1
   100    90    99      1
   101    91    92      1
   102    91    93      1
   103    91   100      1
   104    92   101      1
   105    92   102      1
   106    93    94      1
   107    93   103      1
   108    93   104      1
   109    94    95      1
   110    94   105      1
   111    95   106      1
   112    95   107      1
   113    95   108      1
   114   108   109      1
   115   108   110      1
   116   108   111      1
   117   109   112      1
   118   109   113      1
   119   109   114      1
   120   114   115      1
   121   114   116      1
   122   114   117      1
   123   115   118      1
   124   115   119      1
   125   115   120      1
   126   120   121      1
   127   120   122      1
   128   120   123      1
   129   121   124      1
   130   121   125      1
   131   121   126      1
   132   126   127      1
   133   126   128      1
   134   126   129      1
   135   127   130      1
   136   127   131      1
   137   127   135      1
   138   132   133      1
   139   132   137      1
   140   132   139      1
   141   132   140      1
   142   133   134      1
   143   133   141      1
   144   133   142      1
   145   134   135      1
   146   134   136      1
   147   134   143      1
   148   135   144      1
   149   135   145      1
   150   136   137      1
   151   136   146      1
   152   136   147      1
   153   137   138      1
   154   137   148      1
   155   138   149      1
   156   138   150      1
   157   138   154      1
   158   151   152      1
   159   151   156      1
   160   151   158      1
   161   151   159      1
   162   152   153      1
   163   152   160      1
   164   152   161      1
   165   153   154      1
   166   153   155      1
   167   153   162      1
   168   154   163      1
   169   154   164      1
   170   155   156      1
   171   155   165      1
   172   155   166      1
   173   156   157      1
   174   156   167      1
   175   157   168      1
   176   157   169      1
   177   157   170      1
   178   170   171      1
   179   170   172      1
   180   170   173      1
   181   171   174      1
   182   171   175      1
   183   171   179      1
   184   176   177      1
   185   176   181      1
   186   176   183      1
   187   176   184      1
   188   177   178      1
   189   177   185      1
   190   177   186      1
   191   178   179      1
   192   178   180      1
   193   178   187      1
   194   179   188      1
   195   179   189      1
   196   180   181      1
   197   180   190      1
   198   180   191      1
   199   181   182      1
   200   181   192      1
   201   182   193      1
   202   182   194      1
   203   182   195      1
   204   195   196      1
   205   195   197      1
   206   195   198      1
   207   196   199      1
   208   196   200      1
   209   196   204      1
   210   201   202      1
   211   201   206      1
   212   201   208      1
   213   201   209      1
   214   202   203      1
   215   202   210      1
   216   202   211      1
   217   203   204      1
   218   203   205      1
   219   203   212      1
   220   204   213      1
   221   204   214      1
   222   205   206      1
   223   205   215      1
   224   205   216      1
   225   206   207      1
   226   206   217      1
   227   207   218      1
   228   207   219      1
   229   207   223      1
   230   220   221      1
   231   220   225      1
   232   220   227      1
   233   220   228      1
   234   221   222      1
   235   221   229      1
   236   221   230      1
   237   222   223      1
   238   222   224      1
   239   222   231      1
   240   223   232      1
   241   223   233      1
   242   224   225      1
   243   224   234      1
   244   224   235      1
   245   225   226      1
   246   225   236      1
   247   226   237      1
   248   226   238      1
   249   226   242      1
   250   239   240      1
   251   239   244      1
   252   239   246      1
   253   239   247      1
   254   240   241      1
   255   240   248      1
   256   240   249      1
   257   241   242      1
   258   241   243      1
   259   241   250      1
   260   242   251      1
   261   242   252      1
   262   243   244      1
   263   243   253      1
   264   243   254      1
   265   244   245      1
   266   244   255      1
   267   245   256      1
   268   245   257      1
   269   245   261      1
   270   258   259      1
   271   258   263      1
   272   258   265      1
   273   258   266      1
   274   259   260      1
   275   259   267      1
   276   259   268      1
   277   260   261      1
   278   260   262      1
   279   260   269      1
   280   261   270      1
   281   261   271      1
   282   262   263      1
   283   262   272      1
   284   262   273      1
   285   263   264      1
   286   263   274      1
   287   264   275      1
   288   264   276      1
   289   264   277      1
   290   277   278      1
   291   277   279      1
   292   277   280      1
   293   278   281      1
   294   278   282      1
   295   278   286      1
   296   283   284      1
   297   283   288      1
   298   283   290      1
   299   283   291      1
   300   284   285      1
   301   284   292      1
   302   284   293      1
   303   285   286      1
   304   285   287      1
   305   285   294      1
   306   286   295      1
   307   286   296      1
   308   287   288      1
   309   287   297      1
   310   287   298      1
   311   288   289      1
   312   288   299      1
   313   289   300      1
   314   289   301      1
   315   289   305      1
   316   302   303      1
   317   302   307      1
   318   302   309      1
   319   302   310      1
   320   303   304      1
   321   303   311      1
   322   303   312      1
   323   304   305      1
   324   304   306      1
   325   304   313      1
   326   305   314      1
   327   305   315      1
   328   306   307      1
   329   306   316      1
   330   306   317      1
   331   307   308      1
   332   307   318      1
   333   308   319      1
   334   308   320      1
   335   308   324      1
   336   321   322      1
   337   321   326      1
   338   321   328      1
   339   321   329      1
   340   322   323      1
   341   322   330      1
   342   322   331      1
   343   323   324      1
   344   323   325      1
   345   323   332      1
   346   324   333      1
   347   324   334      1
   348   325   326      1
   349   325   335      1
   350   325   336      1
   351   326   327      1
   352   326   337      1
   353   327   338      1
   354   327   339      1
   355   327   343      1
   356   340   341      1
   357   340   345      1
   358   340   347      1
   359   340   348      1
   360   341   342      1
   361   341   349      1
   362   341   350      1
   363   342   343      1
   364   342   344      1
   365   342   351      1
   366   343   352      1
   367   343   353      1
   368   344   345      1
   369   344   354      1
   370   344   355      1
   371   345   346      1
   372   345   356      1
   373   346   357      1
   374   346   358      1
   375   346   362      1
   376   359   360      1
   377   359   364      1
   378   359   366      1
   379   359   367      1
   380   360   361      1
   381   360   368      1
   382   360   369      1
   383   361   362      1
   384   361   363      1
   385   361   370      1
   386   362   371      1
   387   362   372      1
   388   363   364      1
   389   363   373      1
   390   363   374      1
   391   364   365      1
   392   364   375      1
   393   365   376      1
   394   365   377      1
   395   365   381      1
   396   378   379      1
   397   378   383      1
   398   378   385      1
   399   378   386      1
   400   379   380      1
   401   379   387      1
   402   379   388      1
   403   380   381      1
   404   380   382      1
   405   380   389      1
   406   381   390      1
   407   381   391      1
   408   382   383      1
   409   382   392      1
   410   382   393      1
   411   383   384      1
   412   383   394      1
   413   384   395      1
   414   384   396      1
   415   384   397      1
   416   397   398      1
   417   397   399      1
   418   397   400      1
   419   398   401      1
   420   398   402      1
   421   398   406      1
   422   403   404      1
   423   403   408      1
   424   403   410      1
   425   403   411      1
   426   404   405      1
   427   404   412      1
   428   404   413      1
   429   405   406      1
   430   405   407      1
   431   405   414      1
   432   406   415      1
   433   406   416      1
   434   407   408      1
   435   407   417      1
   436   407   418      1
   437   408   409      1
   438   408   419      1
   439   409   420      1
   440   409   421      1
   441   409   425      1
   442   422   423      1
   443   422   427      1
   444   422   429      1
   445   422   430      1
   446   423   424      1
   447   423   431      1
   448   423   432      1
   449   424   425      1
   450   424   426      1
   451   424   433      1
   452   425   434      1
   453   425   435      1
   454   426   427      1
   455   426   436      1
   456   426   437      1
   457   427   428      1
   458   427   438      1
   459   428   439      1
   460   428   440      1
   461   428   444      1
   462   441   442      1
   463   441   446      1
   464   441   448      1
   465   441   449      1
   466   442   443      1
   467   442   450      1
   468   442   451      1
   469   443   444      1
   470   443   445      1
   471   443   452      1
   472   444   453      1
   473   444   454      1
   474   445   446      1
   475   445   455      1
   476   445   456      1
   477   446   447      1
   478   446   457      1
   479   447   458      1
   480   447   459      1
   481   447   463      1
   482   460   461      1
   483   460   465      1
   484   460   467      1
   485   460   468      1
   486   461   462      1
   487   461   469      1
   488   461   470      1
   489   462   463      1
   490   462   464      1
   491   462   471      1
   492   463   472      1
   493   463   473      1
   494   464   465      1
   495   464   474      1
   496   464   475      1
   497   465   466      1
   498   465   476      1
   499   466   477      1
   500   466   478      1
   501   466   479      1
   502   479   480      1
   503   479   481      1
   504   479   482      1
   505   480   483      1
   506   480   484      1
   507   480   488      1
   508   485   486      1
   509   485   490      1
   510   485   492      1
   511   485   493      1
   512   486   487      1
   513   486   494      1
   514   486   495      1
   515   487   488      1
   516   487   489      1
   517   487   496      1
   518   488   497      1
   519   488   498      1
   520   489   490      1
   521   489   499      1
   522   489   500      1
   523   490   491      1
   524   490   501      1
   525   491   502      1
   526   491   503      1
   527   491   507      1
   528   504   505      1
   529   504   509      1
   530   504   511      1
   531   504   512      1
   532   505   506      1
   533   505   513      1
   534   505   514      1
   535   506   507      1
   536   506   508      1
   537   506   515      1
   538   507   516      1
   539   507   517      1
   540   508   509      1
   541   508   518      1
   542   508   519      1
   543   509   510      1
   544   509   520      1
   545   510   521      1
   546   510   522      1
   547   510   526      1
   548   523   524      1
   549   523   528      1
   550   523   530      1
   551   523   531      1
   552   524   525      1
   553   524   532      1
   554   524   533      1
   555   525   526      1
   556   525   527      1
   557   525   534      1
   558   526   535      1
   559   526   536      1
   560   527   528      1
   561   527   537      1
   562   527   538      1
   563   528   529      1
   564   528   539      1
   565   529   540      1
   566   529   541      1
   567   529   545      1
   568   542   543      1
   569   542   547      1
   570   542   549      1
   571   542   550      1
   572   543   544      1
   573   543   551      1
   574   543   552      1
   575   544   545      1
   576   544   546      1
   577   544   553      1
   578   545   554      1
   579   545   555      1
   580   546   547      1
   581   546   556      1
   582   546   557      1
   583   547   548      1
   584   547   558      1
   585   548   559      1
   586   548   560      1
   587   548   564      1
   588   561   562      1
   589   561   566      1
   590   561   568      1
   591   561   569      1
   592   562   563      1
   593   562   570      1
   594   562   571      1
   595   563   564      1
   596   563   565      1
   597   563   572      1
   598   564   573      1
   599   564   574      1
   600   565   566      1
   601   565   575      1
   602   565   576      1
   603   566   567      1
   604   566   577      1
   605   567   578      1
   606   567   579      1
   607   567   583      1
   608   580   581      1
   609   580   585      1
   610   580   587      1
   611   580   588      1
   612   581   582      1
   613   581   589      1
   614   581   590      1
   615   582   583      1
   616   582   584      1
   617   582   591      1
   618   583   592      1
   619   583   593      1
   620   584   585      1
   621   584   594      1
   622   584   595      1
   623   585   586      1
   624   585   596      1
   625   586   597      1
   626   586   598      1
   627   586   602      1
   628   599   600      1
   629   599   604      1
   630   599   606      1
   631   599   607      1
   632   600   601      1
   633   600   608      1
   634   600   609      1
   635   601   602      1
   636   601   603      1
   637   601   610      1
   638   602   611      1
   639   602   612      1
   640   603   604      1
   641   603   613      1
   642   603   614      1
   643   604   605      1
   644   604   615      1
   645   605   616      1
   646   605   617      1
   647   605   621      1
   648   618   619      1
   649   618   623      1
   650   618   625      1
   651   618   626      1
   652   619   620      1
   653   619   627      1
   654   619   628      1
   655   620   621      1
   656   620   622      1
   657   620   629      1
   658   621   630      1
   659   621   631      1
   660   622   623      1
   661   622   632      1
   662   622   633      1
   663   623   624      1
   664   623   634      1
   665   624   635      1
   666   624   636      1
   667   624   640      1
   668   637   638      1
   669   637   642      1
   670   637   644      1
   671   637   645      1
   672   638   639      1
   673   638   646      1
   674   638   647      1
   675   639   640      1
   676   639   641      1
   677   639   648      1
   678   640   649      1
   679   640   650      1
   680   641   642      1
   681   641   651      1
   682   641   652      1
   683   642   643      1
   684   642   653      1
   685   643   654      1
   686   643   655      1
   687   643   659      1
   688   656   657      1
   689   656   661      1
   690   656   663      1
   691   656   664      1
   692   657   658      1
   693   657   665      1
   694   657   666      1
   695   658   659      1
   696   658   660      1
   697   658   667      1
   698   659   668      1
   699   659   669      1
   700   660   661      1
   701   660   670      1
   702   660   671      1
   703   661   662      1
   704   661   672      1
   705   662   673      1
   706   662   674      1
   707   662   675      1
   708   675   676      1
   709   675   677      1
   710   675   678      1
   711   676   679      1
   712   676   680      1
   713   676   684      1
   714   681   682      1
   715   681   686      1
   716   681   688      1
   717   681   689      1
   718   682   683      1
   719   682   690      1
   720   682   691      1
   721   683   684      1
   722   683   685      1
   723   683   692      1
   724   684   693      1
   725   684   694      1
   726   685   686      1
   727   685   695      1
   728   685   696      1
   729   686   687      1
   730   686   697      1
   731   687   698      1
   732   687   699      1
   733   687   703      1
   734   700   701      1
   735   700   705      1
   736   700   707      1
   737   700   708      1
   738   701   702      1
   739   701   709      1
   740   701   710      1
   741   702   703      1
   742   702   704      1
   743   702   711      1
   744   703   712      1
   745   703   713      1
   746   704   705      1
   747   704   714      1
   748   704   715      1
   749   705   706      1
   750   705   716      1
   751   706   717      1
   752   706   718      1
   753   706   722      1
   754   719   720      1
   755   719   724      1
   756   719   726      1
   757   719   727      1
   758   720   721      1
   759   720   728      1
   760   720   729      1
   761   721   722      1
   762   721   723      1
   763   721   730      1
   764   722   731      1
   765   722   732      1
   766   723   724      1
   767   723   733      1
   768   723   734      1
   769   724   725      1
   770   724   735      1
   771   725   736      1
   772   725   737      1
   773   725   741      1
   774   738   739      1
   775   738   743      1
   776   738   745      1
   777   738   746      1
   778   739   740      1
   779   739   747      1
   780   739   748      1
   781   740   741      1
   782   740   742      1
   783   740   749      1
   784   741   750      1
   785   741   751      1
   786   742   743      1
   787   742   752      1
   788   742   753      1
   789   743   744      1
   790   743   754      1
   791   744   755      1
   792   744   756      1
   793   744   760      1
   794   757   758      1
   795   757   762      1
   796   757   764      1
   797   757   765      1
   798   758   759      1
   799   758   766      1
   800   758   767      1
   801   759   760      1
   802   759   761      1
   803   759   768      1
   804   760   769      1
   805   760   770      1
   806   761   762      1
   807   761   771      1
   808   761   772      1
   809   762   763      1
   810   762   773      1
   811   763   774      1
   812   763   775      1
   813   763   779      1
   814   776   777      1
   815   776   781      1
   816   776   783      1
   817   776   784      1
   818   777   778      1
   819   777   785      1
   820   777   786      1
   821   778   779      1
   822   778   780      1
   823   778   787      1
   824   779   788      1
   825   779   789      1
   826   780   781      1
   827   780   790      1
   828   780   791      1
   829   781   782      1
   830   781   792      1
   831   782   793      1
   832   782   794      1
   833   782   795      1
   834   795   796      1
   835   795   797      1
   836   795   798      1
   837   796   799      1
   838   796   800      1
   839   796   804      1
   840   801   802      1
   841   801   806      1
   842   801   808      1
   843   801   809      1
   844   802   803      1
   845   802   810      1
   846   802   811      1
   847   803   804      1
   848   803   805      1
   849   803   812      1
   850   804   813      1
   851   804   814      1
   852   805   806      1
   853   805   815      1
   854   805   816      1
   855   806   807      1
   856   806   817      1
   857   807   818      1
   858   807   819      1
   859   807   823      1
   860   820   821      1
   861   820   825      1
   862   820   827      1
   863   820   828      1
   864   821   822      1
   865   821   829      1
   866   821   830      1
   867   822   823      1
   868   822   824      1
   869   822   831      1
   870   823   832      1
   871   823   833      1
   872   824   825      1
   873   824   834      1
   874   824   835      1
   875   825   826      1
   876   825   836      1
   877   826   837      1
   878   826   838      1
   879   826   839      1
   880   839   840      1
   881   839   841      1
   882   839   842      1
   883   840   843      1
   884   840   844      1
   885   840   848      1
   886   845   846      1
   887   845   850      1
   888   845   852      1
   889   845   853      1
   890   846   847      1
   891   846   854      1
   892   846   855      1
   893   847   848      1
   894   847   849      1
   895   847   856      1
   896   848   857      1
   897   848   858      1
   898   849   850      1
   899   849   859      1
   900   849   860      1
   901   850   851      1
   902   850   861      1
   903   851   862      1
   904   851   863      1
   905   851   867      1
   906   864   865      1
   907   864   869      1
   908   864   871      1
   909   864   872      1
   910   865   866      1
   911   865   873      1
   912   865   874      1
   913   866   867      1
   914   866   868      1
   915   866   875      1
   916   867   876      1
   917   867   877      1
   918   868   869      1
   919   868   878      1
   920   868   879      1
   921   869   870      1
   922   869   880      1
   923   870   881      1
   924   870   882      1
   925   870   883      1
   926   883   884      1
   927   883   885      1
   928   883   886      1
   929   884   887      1
   930   884   888      1
   931   884   892      1
   932   889   890      1
   933   889   894      1
   934   889   896      1
   935   889   897      1
   936   890   891      1
   937   890   898      1
   938   890   899      1
   939   891   892      1
   940   891   893      1
   941   891   900      1
   942   892   901      1
   943   892   902      1
   944   893   894      1
   945   893   903      1
   946   893   904      1
   947   894   895      1
   948   894   905      1
   949   895   906      1
   950   895   907      1
   951   895   908      1
   952   908   909      1
   953   908   910      1
   954   908   911      1
   955   909   912      1
   956   909   913      1
   957   909   917      1
   958   914   915      1
   959   914   919      1
   960   914   921      1
   961   914   922      1
   962   915   916      1
   963   915   923      1
   964   915   924      1
   965   916   917      1
   966   916   918      1
   967   916   925      1
   968   917   926      1
   969   917   927      1
   970   918   919      1
   971   918   928      1
   972   918   929      1
   973   919   920      1
   974   919   930      1
   975   920   931      1
   976   920   932      1
   977   920   936      1
   978   933   934      1
   979   933   938      1
   980   933   940      1
   981   933   941      1
   982   934   935      1
   983   934   942      1
   984   934   943      1
   985   935   936      1
   986   935   937      1
   987   935   944      1
   988   936   945      1
   989   936   946      1
   990   937   938      1
   991   937   947      1
   992   937   948      1
   993   938   939      1
   994   938   949      1
   995   939   950      1
   996   939   951      1
   997   939   955      1
   998   952   953      1
   999   952   957      1
  1000   952   959      1
  1001   952   960      1
  1002   953   954      1
  1003   953   961      1
  1004   953   962      1
  1005   954   955      1
  1006   954   956      1
  1007   954   963      1
  1008   955   964      1
  1009   955   965      1
  1010   956   957      1
  1011   956   966      1
  1012   956   967      1
  1013   957   958      1
  1014   957   968      1
  1015   958   969      1
  1016   958   970      1
  1017   958   971      1
  1018   971   972      1
  1019   971   973      1
  1020   971   974      1
  1021   972   975      1
  1022   972   976      1
  1023   972   980      1
  1024   977   978      1
  1025   977   982      1
  1026   977   984      1
  1027   977   985      1
  1028   978   979      1
  1029   978   986      1
  1030   978   987      1
  1031   979   980      1
  1032   979   981      1
  1033   979   988      1
  1034   980   989      1
  1035   980   990      1
  1036   981   982      1
  1037   981   991      1
  1038   981   992      1
  1039   982   983      1
  1040   982   993      1
  1041   983   994      1
  1042   983   995      1
  1043   983   999      1
  1044   996   997      1
  1045   996  1001      1
  1046   996  1003      1
  1047   996  1004      1
  1048   997   998      1
  1049   997  1005      1
  1050   997  1006      1
  1051   998   999      1
  1052   998  1000      1
  1053   998  1007      1
  1054   999  1008      1
  1055   999  1009      1
  1056  1000  1001      1
  1057  1000  1010      1
  1058  1000  1011      1
  1059  1001  1002      1
  1060  1001  1012      1
  1061  1002  1013      1
  1062  1002  1014      1
  1063  1002  1015      1
  1064  1015  1016      1
  1065  1015  1017      1
  1066  1015  1018      1
  1067  1016  1019      1
  1068  1016  1020      1
  1069  1016  1024      1
  1070  1021  1022      1
  1071  1021  1026      1
  1072  1021  1028      1
  1073  1021  1029      1
  1074  1022  1023      1
  1075  1022  1030      1
  1076  1022  1031      1
  1077  1023  1024      1
  1078  1023  1025      1
  1079  1023  1032      1
  1080  1024  1033      1
  1081  1024  1034      1
  1082  1025  1026      1
  1083  1025  1035      1
  1084  1025  1036      1
  1085  1026  1027      1
  1086  1026  1037      1
  1087  1027  1038      1
  1088  1027  1039      1
  1089  1027  1043      1
  1090  1040  1041      1
  1091  1040  1045      1
  1092  1040  1047      1
  1093  1040  1048      1
  1094  1041  1042      1
  1095  1041  1049      1
  1096  1041  1050      1
  1097  1042  1043      1
  1098  1042  1044      1
  1099  1042  1051      1
  1100  1043  1052      1
  1101  1043  1053      1
  1102  1044  1045      1
  1103  1044  1054      1
  1104  1044  1055      1
  1105  1045  1046      1
  1106  1045  1056      1
  1107  1046  1057      1
  1108  1046  1058      1
  1109  1046  1059      1
  1110  1059  1060      1
  1111  1059  1061      1
  1112  1059  1062      1
  1113  1060  1063      1
  1114  1060  1064      1
  1115  1060  1068      1
  1116  1065  1066      1
  1117  1065  1070      1
  1118  1065  1072      1
  1119  1065  1073      1
  1120  1066  1067      1
  1121  1066  1074      1
  1122  1066  1075      1
  1123  1067  1068      1
  1124  1067  1069      1
  1125  1067  1076      1
  1126  1068  1077      1
  1127  1068  1078      1
  1128  1069  1070      1
  1129  1069  1079      1
  1130  1069  1080      1
  1131  1070  1071      1
  1132  1070  1081      1
  1133  1071  1082      1
  1134  1071  1083      1
  1135  1071  1087      1
  1136  1084  1085      1
  1137  1084  1089      1
  1138  1084  1091      1
  1139  1084  1092      1
  1140  1085  1086      1
  1141  1085  1093      1
  1142  1085  1094      1
  1143  1086  1087      1
  1144  1086  1088      1
  1145  1086  1095      1
  1146  1087  1096      1
  1147  1087  1097      1
  1148  1088  1089      1
  1149  1088  1098      1
  1150  1088  1099      1
  1151  1089  1090      1
  1152  1089  1100      1
  1153  1090  1101      1
  1154  1090  1102      1
  1155  1090  1103      1
  1156  1103  1104      1
  1157  1103  1105      1
  1158  1103  1106      1
  1159  1104  1107      1
  1160  1104  1108      1
  1161  1104  1109      1
  1162  1109  1110      1
  1163  1109  1111      1
  1164  1109  1112      1
  1165  1110  1113      1
  1166  1110  1114      1
  1167  1110  1118      1
  1168  1115  1116      1
  1169  1115  1120      1
  1170  1115  1122      1
  1171  1115  1123      1
  1172  1116  1117      1
  1173  1116  1124      1
  1174  1116  1125      1
  1175  1117  1118      1
  1176  1117  1119      1
  1177  1117  1126      1
  1178  1118  1127      1
  1179  1118  1128      1
  1180  1119  1120      1
  1181  1119  1129      1
  1182  1119  1130      1
  1183  1120  1121      1
  1184  1120  1131      1
  1185  1121  1132      1
  1186  1121  1133      1
  1187  1121  1137      1
  1188  1134  1135      1
  1189  1134  1139      1
  1190  1134  1141      1
  1191  1134  1142      1
  1192  1135  1136      1
  1193  1135  1143      1
  1194  1135  1144      1
  1195  1136  1137      1
  1196  1136  1138      1
  1197  1136  1145      1
  1198  1137  1146      1
  1199  1137  1147      1
  1200  1138  1139      1
  1201  1138  1148      1
  1202  1138  1149      1
  1203  1139  1140      1
  1204  1139  1150      1
  1205  1140  1151      1
  1206  1140  1152      1
  1207  1140  1153      1
  1208  1153  1154      1
  1209  1153  1155      1
  1210  1153  1156      1
  1211  1154  1157      1
  1212  1154  1158      1
  1213  1154  1162      1
  1214  1159  1160      1
  1215  1159  1164      1
  1216  1159  1166      1
  1217  1159  1167      1
  1218  1160  1161      1
  1219  1160  1168      1
  1220  1160  1169      1
  1221  1161  1162      1
  1222  1161  1163      1
  1223  1161  1170      1
  1224  1162  1171      1
  1225  1162  1172      1
  1226  1163  1164      1
  1227  1163  1173      1
  1228  1163  1174      1
  1229  1164  1165      1
  1230  1164  1175      1
  1231  1165  1176      1
  1232  1165  1177      1
  1233  1165  1181      1
  1234  1178  1179      1
  1235  1178  1183      1
  1236  1178  1185      1
  1237  1178  1186      1
  1238  1179  1180      1
  1239  1179  1187      1
  1240  1179  1188      1
  1241  1180  1181      1
  1242  1180  1182      1
  1243  1180  1189      1
  1244  1181  1190      1
  1245  1181  1191      1
  1246  1182  1183      1
  1247  1182  1192      1
  1248  1182  1193      1
  1249  1183  1184      1
  1250  1183  1194      1
  1251  1184  1195      1
  1252  1184  1196      1
  1253  1184  1200      1
  1254  1197  1198      1
  1255  1197  1202      1
  1256  1197  1204      1
  1257  1197  1205      1
  1258  1198  1199      1
  1259  1198  1206      1
  1260  1198  1207      1
  1261  1199  1200      1
  1262  1199  1201      1
  1263  1199  1208      1
  1264  1200  1209      1
  1265  1200  1210      1
  1266  1201  1202      1
  1267  1201  1211      1
  1268  1201  1212      1
  1269  1202  1203      1
  1270  1202  1213      1
  1271  1203  1214      1
  1272  1203  1215      1
  1273  1203  1219      1
  1274  1216  1217      1
  1275  1216  1221      1
  1276  1216  1223      1
  1277  1216  1224      1
  1278  1217  1218      1
  1279  1217  1225      1
  1280  1217  1226      1
  1281  1218  1219      1
  1282  1218  1220      1
  1283  1218  1227      1
  1284  1219  1228      1
  1285  1219  1229      1
  1286  1220  1221      1
  1287  1220  1230      1
  1288  1220  1231      1
  1289  1221  1222      1
  1290  1221  1232      1
  1291  1222  1233      1
  1292  1222  1234      1
  1293  1222  1235      1
  1294  1235  1236      1
  1295  1235  1237      1
  1296  1235  1238      1
  1297  1236  1239      1
  1298  1236  1240      1
  1299  1236  1244      1
  1300  1241  1242      1
  1301  1241  1246      1
  1302  1241  1248      1
  1303  1241  1249      1
  1304  1242  1243      1
  1305  1242  1250      1
  1306  1242  1251      1
  1307  1243  1244      1
  1308  1243  1245      1
  1309  1243  1252      1
  1310  1244  1253      1
  1311  1244  1254      1
  1312  1245  1246      1
  1313  1245  1255      1
  1314  1245  1256      1
  1315  1246  1247      1
  1316  1246  1257      1
  1317  1247  1258      1
  1318  1247  1259      1
  1319  1247  1260      1
  1320  1260  1261      1
  1321  1260  1262      1
  1322  1260  1263      1
  1323  1261  1264      1
  1324  1261  1265      1
  1325  1261  1269      1
  1326  1266  1267      1
  1327  1266  1271      1
  1328  1266  1273      1
  1329  1266  1274      1
  1330  1267  1268      1
  1331  1267  1275      1
  1332  1267  1276      1
  1333  1268  1269      1
  1334  1268  1270      1
  1335  1268  1277      1
  1336  1269  1278      1
  1337  1269  1279      1
  1338  1270  1271      1
  1339  1270  1280      1
  1340  1270  1281      1
  1341  1271  1272      1
  1342  1271  1282      1
  1343  1272  1283      1
  1344  1272  1284      1
  1345  1272  1288      1
  1346  1285  1286      1
  1347  1285  1290      1
  1348  1285  1292      1
  1349  1285  1293      1
  1350  1286  1287      1
  1351  1286  1294      1
  1352  1286  1295      1
  1353  1287  1288      1
  1354  1287  1289      1
  1355  1287  1296      1
  1356  1288  1297      1
  1357  1288  1298      1
  1358  1289  1290      1
  1359  1289  1299      1
  1360  1289  1300      1
  1361  1290  1291      1
  1362  1290  1301      1
  1363  1291  1302      1
  1364  1291  1303      1
  1365  1291  1307      1
  1366  1304  1305      1
  1367  1304  1309      1
  1368  1304  1311      1
  1369  1304  1312      1
  1370  1305  1306      1
  1371  1305  1313      1
  1372  1305  1314      1
  1373  1306  1307      1
  1374  1306  1308      1
  1375  1306  1315      1
  1376  1307  1316      1
  1377  1307  1317      1
  1378  1308  1309      1
  1379  1308  1318      1
  1380  1308  1319      1
  1381  1309  1310      1
  1382  1309  1320      1
  1383  1310  1321      1
  1384  1310  1322      1
  1385  1310  1326      1
  1386  1323  1324      1
  1387  1323  1328      1
  1388  1323  1330      1
  1389  1323  1331      1
  1390  1324  1325      1
  1391  1324  1332      1
  1392  1324  1333      1
  1393  1325  1326      1
  1394  1325  1327      1
  1395  1325  1334      1
  1396  1326  1335      1
  1397  1326  1336      1
  1398  1327  1328      1
  1399  1327  1337      1
  1400  1327  1338      1
  1401  1328  1329      1
  1402  1328  1339      1
  1403  1329  1340      1
  1404  1329  1341      1
  1405  1329  1342      1
  1406  1342  1343      1
  1407  1342  1344      1
  1408  1342  1345      1
  1409  1343  1346      1
  1410  1343  1347      1
  1411  1343  1348      1
  1412  1348  1349      1
  1413  1348  1350      1
  1414  1348  1351      1
  1415  1349  1352      1
  1416  1349  1353      1
  1417  1349  1357      1
  1418  1354  1355      1
  1419  1354  1359      1
  1420  1354  1361      1
  1421  1354  1362      1
  1422  1355  1356      1
  1423  1355  1363      1
  1424  1355  1364      1
  1425  1356  1357      1
  1426  1356  1358      1
  1427  1356  1365      1
  1428  1357  1366      1
  1429  1357  1367      1
  1430  1358  1359      1
  1431  1358  1368      1
  1432  1358  1369      1
  1433  1359  1360      1
  1434  1359  1370      1
  1435  1360  1371      1
  1436  1360  1372      1
  1437  1360  1373      1
  1438  1373  1374      1
  1439  1373  1375      1
  1440  1373  1376      1
  1441  1374  1377      1
  1442  1374  1378      1
  1443  1374  1382      1
  1444  1379  1380      1
  1445  1379  1384      1
  1446  1379  1386      1
  1447  1379  1387      1
  1448  1380  1381      1
  1449  1380  1388      1
  1450  1380  1389      1
  1451  1381  1382      1
  1452  1381  1383      1
  1453  1381  1390      1
  1454  1382  1391      1
  1455  1382  1392      1
  1456  1383  1384      1
  1457  1383  1393      1
  1458  1383  1394      1
  1459  1384  1385      1
  1460  1384  1395      1
  1461  1385  1396      1
  1462  1385  1397      1
  1463  1385  1398      1
  1464  1398  1399      1
  1465  1398  1400      1
  1466  1398  1401      1
  1467  1399  1402      1
  1468  1399  1403      1
  1469  1399  1404      1
  1470  1404  1405      1
  1471  1404  1406      1
  1472  1404  1407      1
  1473  1405  1408      1
  1474  1405  1409      1
  1475  1405  1413      1
  1476  1410  1411      1
  1477  1410  1415      1
  1478  1410  1417      1
  1479  1410  1418      1
  1480  1411  1412      1
  1481  1411  1419      1
  1482  1411  1420      1
  1483  1412  1413      1
  1484  1412  1414      1
  1485  1412  1421      1
  1486  1413  1422      1
  1487  1413  1423      1
  1488  1414  1415      1
  1489  1414  1424      1
  1490  1414  1425      1
  1491  1415  1416      1
  1492  1415  1426      1
  1493  1416  1427      1
  1494  1416  1428      1
  1495  1416  1432      1
  1496  1429  1430      1
  1497  1429  1434      1
  1498  1429  1436      1
  1499  1429  1437      1
  1500  1430  1431      1
  1501  1430  1438      1
  1502  1430  1439      1
  1503  1431  1432      1
  1504  1431  1433      1
  1505  1431  1440      1
  1506  1432  1441      1
  1507  1432  1442      1
  1508  1433  1434      1
  1509  1433  1443      1
  1510  1433  1444      1
  1511  1434  1435      1
  1512  1434  1445      1
  1513  1435  1446      1
  1514  1435  1447      1
  1515  1435  1448      H
