###
### Created by PolyChef-cpp17 on Wed Feb 26 21:14:12 2025
###

@<TRIPOS>MOLECULE
NO_INFO
1085 1135 1 0 0
SMALL
USER_CHARGES


@<TRIPOS>ATOM
      1 C         220.7069   81.2298  137.1776 C.3       0        0    0.0000
      2 C         220.7728   80.2864  135.9846 C.3       0        0    0.0000
      3 C         219.2958   80.0619  135.6444 C.3       0        0    0.0000
      4 C         219.0037   78.8546  134.7482 C.3       0        0    0.0000
      5 C         218.5606   80.0773  136.9989 C.3       0        0    0.0000
      6 C         219.5711   80.6381  138.0187 C.3       0        0    0.0000
      7 C         218.9861   81.5715  139.0830 C.3       0        0    0.0000
      8 H         221.6527   81.2604  137.7272 H         0        0    0.0000
      9 H         220.4798   82.2450  136.8343 H         0        0    0.0000
     10 H         221.3257   80.7239  135.1475 H         0        0    0.0000
     11 H         221.2747   79.3569  136.2751 H         0        0    0.0000
     12 H         218.9573   80.9509  135.0911 H         0        0    0.0000
     13 H         218.8258   77.9754  135.3787 H         0        0    0.0000
     14 H         218.0762   79.0367  134.1926 H         0        0    0.0000
     15 H         218.2338   79.0815  137.3172 H         0        0    0.0000
     16 H         217.6550   80.6880  136.9169 H         0        0    0.0000
     17 H         219.9894   79.7741  138.5567 H         0        0    0.0000
     18 H         219.5877   81.4945  139.9964 H         0        0    0.0000
     19 H         219.0711   82.6082  138.7363 H         0        0    0.0000
     20 C         216.9909   78.1955  141.4343 C.3       1        0    0.0000
     21 C         217.9948   79.0905  140.7036 C.3       1        0    0.0000
     22 C         217.2224   79.7796  139.5644 C.3       1        0    0.0000
     23 C         217.4967   81.2833  139.4388 C.3       1        0    0.0000
     24 C         215.7505   79.4780  139.8639 C.3       1        0    0.0000
     25 C         215.7661   78.0926  140.5188 C.3       1        0    0.0000
     26 C         215.8764   76.9555  139.4855 C.3       1        0    0.0000
     27 H         217.4262   77.2275  141.7000 H         1        0    0.0000
     28 H         216.6988   78.6850  142.3722 H         1        0    0.0000
     29 H         218.4427   79.8024  141.4056 H         1        0    0.0000
     30 H         218.8112   78.4881  140.2883 H         1        0    0.0000
     31 H         217.4868   79.2840  138.6193 H         1        0    0.0000
     32 H         216.8626   81.7033  138.6488 H         1        0    0.0000
     33 H         217.2305   81.8000  140.3681 H         1        0    0.0000
     34 H         215.1324   79.5146  138.9610 H         1        0    0.0000
     35 H         215.3465   80.2129  140.5722 H         1        0    0.0000
     36 H         214.8547   77.9572  141.1150 H         1        0    0.0000
     37 H         215.9152   75.9769  139.9766 H         1        0    0.0000
     38 H         216.8100   77.0659  138.9211 H         1        0    0.0000
     39 C         214.6938   76.9774  138.4741 C.3       2        0    0.0000
     40 C         214.7143   78.1772  137.5162 C.3       2        0    0.0000
     41 H         214.7728   76.0616  137.8744 H         2        0    0.0000
     42 H         213.7429   76.9160  139.0162 H         2        0    0.0000
     43 H         215.6514   78.2186  136.9487 H         2        0    0.0000
     44 H         213.9092   78.0412  136.7828 H         2        0    0.0000
     45 C         213.1706   78.0800  141.3684 C.3       3        0    0.0000
     46 C         213.1848   78.0077  139.8396 C.3       3        0    0.0000
     47 C         213.4139   79.4431  139.3332 C.3       3        0    0.0000
     48 C         214.4598   79.5565  138.2172 C.3       3        0    0.0000
     49 C         213.8096   80.2315  140.5858 C.3       3        0    0.0000
     50 C         213.0298   79.5642  141.7239 C.3       3        0    0.0000
     51 C         211.5645   80.0352  141.7873 C.3       3        0    0.0000
     52 H         212.3890   77.4468  141.7989 H         3        0    0.0000
     53 H         214.1310   77.7087  141.7485 H         3        0    0.0000
     54 H         213.9597   77.3095  139.5045 H         3        0    0.0000
     55 H         212.2256   77.6303  139.4666 H         3        0    0.0000
     56 H         212.4542   79.8381  138.9703 H         3        0    0.0000
     57 H         214.1097   80.2710  137.4626 H         3        0    0.0000
     58 H         215.4024   79.9504  138.6144 H         3        0    0.0000
     59 H         213.5865   81.2987  140.4862 H         3        0    0.0000
     60 H         214.8866   80.1341  140.7741 H         3        0    0.0000
     61 H         213.5231   79.7754  142.6812 H         3        0    0.0000
     62 H         210.9598   79.5524  141.0116 H         3        0    0.0000
     63 H         211.5208   81.1146  141.5995 H         3        0    0.0000
     64 C         210.9292   79.7601  143.1811 C.3       4        0    0.0000
     65 C         209.5117   80.3272  143.3435 C.3       4        0    0.0000
     66 H         210.8748   78.6698  143.2948 H         4        0    0.0000
     67 H         211.5975   80.1245  143.9701 H         4        0    0.0000
     68 H         209.4687   81.3831  143.0516 H         4        0    0.0000
     69 H         208.8475   79.7850  142.6583 H         4        0    0.0000
     70 C         205.9718   78.7010  144.7915 C.3       5        0    0.0000
     71 C         206.5400   79.8450  143.9473 C.3       5        0    0.0000
     72 C         207.4619   80.6516  144.8684 C.3       5        0    0.0000
     73 C         208.9167   80.1525  144.7836 C.3       5        0    0.0000
     74 C         206.8010   80.4530  146.2384 C.3       5        0    0.0000
     75 C         206.3802   78.9812  146.2473 C.3       5        0    0.0000
     76 C         205.2849   78.6941  147.2806 C.3       5        0    0.0000
     77 H         204.8845   78.6517  144.6640 H         5        0    0.0000
     78 H         206.3810   77.7390  144.4623 H         5        0    0.0000
     79 H         205.7120   80.4836  143.6144 H         5        0    0.0000
     80 H         207.0430   79.4779  143.0469 H         5        0    0.0000
     81 H         207.4326   81.7123  144.5877 H         5        0    0.0000
     82 H         208.9476   79.0870  145.0415 H         5        0    0.0000
     83 H         209.5564   80.6678  145.5081 H         5        0    0.0000
     84 H         205.9182   81.1013  146.3133 H         5        0    0.0000
     85 H         207.4569   80.6945  147.0801 H         5        0    0.0000
     86 H         207.2626   78.3698  146.4830 H         5        0    0.0000
     87 H         205.6871   78.7806  148.2967 H         5        0    0.0000
     88 H         204.9357   77.6614  147.1636 H         5        0    0.0000
     89 C         203.2242   81.3129  150.3982 C.3       6        0    0.0000
     90 C         204.1737   80.4936  149.5201 C.3       6        0    0.0000
     91 C         203.3058   79.8515  148.4299 C.3       6        0    0.0000
     92 C         204.0709   79.6533  147.1184 C.3       6        0    0.0000
     93 C         202.1082   80.8025  148.3331 C.3       6        0    0.0000
     94 C         201.8221   81.1316  149.8020 C.3       6        0    0.0000
     95 C         200.9340   82.3598  150.0194 C.3       6        0    0.0000
     96 H         203.2541   80.9780  151.4406 H         6        0    0.0000
     97 H         203.5325   82.3652  150.3860 H         6        0    0.0000
     98 H         204.6999   79.7304  150.1035 H         6        0    0.0000
     99 H         204.9348   81.1552  149.0893 H         6        0    0.0000
    100 H         202.9521   78.8789  148.8021 H         6        0    0.0000
    101 H         204.4381   80.6236  146.7634 H         6        0    0.0000
    102 H         203.4008   79.2657  146.3421 H         6        0    0.0000
    103 H         201.2496   80.3305  147.8450 H         6        0    0.0000
    104 H         202.3699   81.7079  147.7713 H         6        0    0.0000
    105 H         201.3598   80.2528  150.2747 H         6        0    0.0000
    106 H         200.1643   82.4152  149.2407 H         6        0    0.0000
    107 H         201.5426   83.2674  149.9275 H         6        0    0.0000
    108 C         200.2563   82.3590  151.4171 C.3       7        0    0.0000
    109 C         201.2209   82.6390  152.5783 C.3       7        0    0.0000
    110 H         199.5004   83.1547  151.4031 H         7        0    0.0000
    111 H         199.7164   81.4164  151.5654 H         7        0    0.0000
    112 H         202.0836   83.2287  152.2469 H         7        0    0.0000
    113 H         200.6912   83.2484  153.3216 H         7        0    0.0000
    114 C         201.7160   81.3494  153.3203 C.3       8        0    0.0000
    115 C         201.4007   81.3342  154.8229 C.3       8        0    0.0000
    116 H         202.8065   81.3141  153.2009 H         8        0    0.0000
    117 H         201.3170   80.4592  152.8200 H         8        0    0.0000
    118 H         202.3510   81.2834  155.3696 H         8        0    0.0000
    119 H         200.9080   82.2621  155.1364 H         8        0    0.0000
    120 C         200.5476   80.1015  155.2825 C.3       9        0    0.0000
    121 C         201.2057   79.2652  156.3892 C.3       9        0    0.0000
    122 H         199.6017   80.4986  155.6726 H         9        0    0.0000
    123 H         200.2933   79.4835  154.4133 H         9        0    0.0000
    124 H         202.2686   79.0946  156.1817 H         9        0    0.0000
    125 H         201.1566   79.8384  157.3239 H         9        0    0.0000
    126 C         200.4937   77.8948  156.6608 C.3      10        0    0.0000
    127 C         200.0704   77.6906  158.1225 C.3      10        0    0.0000
    128 H         201.2129   77.1073  156.4014 H        10        0    0.0000
    129 H         199.6429   77.7790  155.9793 H        10        0    0.0000
    130 H         200.7951   77.0157  158.5957 H        10        0    0.0000
    131 H         200.1063   78.6319  158.6834 H        10        0    0.0000
    132 C         197.3182   77.5275  161.8116 C.3      11        0    0.0000
    133 C         198.4859   77.3102  160.8595 C.3      11        0    0.0000
    134 C         197.8556   77.5538  159.4843 C.3      11        0    0.0000
    135 C         198.6589   77.0288  158.2905 C.3      11        0    0.0000
    136 C         196.4131   77.0234  159.5995 C.3      11        0    0.0000
    137 C         196.1633   76.8098  161.1053 C.3      11        0    0.0000
    138 C         194.7608   77.1758  161.6004 C.3      11        0    0.0000
    139 H         197.5164   77.1102  162.8036 H        11        0    0.0000
    140 H         197.1285   78.6005  161.9255 H        11        0    0.0000
    141 H         199.3117   77.9995  161.0613 H        11        0    0.0000
    142 H         198.8634   76.2870  160.9644 H        11        0    0.0000
    143 H         197.7819   78.6443  159.3560 H        11        0    0.0000
    144 H         198.7882   75.9450  158.3948 H        11        0    0.0000
    145 H         198.0826   77.1903  157.3718 H        11        0    0.0000
    146 H         196.2630   76.0786  159.0660 H        11        0    0.0000
    147 H         195.7211   77.7444  159.1512 H        11        0    0.0000
    148 H         196.2915   75.7338  161.2973 H        11        0    0.0000
    149 H         194.2962   77.8635  160.8839 H        11        0    0.0000
    150 H         194.1397   76.2723  161.6180 H        11        0    0.0000
    151 C         191.7574   80.1461  163.1654 C.3      12        0    0.0000
    152 C         193.2036   79.8016  163.5308 C.3      12        0    0.0000
    153 C         193.3239   78.2759  163.4207 C.3      12        0    0.0000
    154 C         194.7314   77.8308  163.0140 C.3      12        0    0.0000
    155 C         192.2243   77.9114  162.4177 C.3      12        0    0.0000
    156 C         191.0640   78.8143  162.8498 C.3      12        0    0.0000
    157 C         189.9535   78.9690  161.8071 C.3      12        0    0.0000
    158 H         191.2512   80.6680  163.9845 H        12        0    0.0000
    159 H         191.7500   80.8177  162.2985 H        12        0    0.0000
    160 H         193.4535   80.1433  164.5410 H        12        0    0.0000
    161 H         193.8859   80.3089  162.8382 H        12        0    0.0000
    162 H         193.0663   77.8406  164.3972 H        12        0    0.0000
    163 H         195.1057   77.1028  163.7436 H        12        0    0.0000
    164 H         195.4208   78.6830  163.0357 H        12        0    0.0000
    165 H         191.9584   76.8508  162.4697 H        12        0    0.0000
    166 H         192.5377   78.1388  161.3911 H        12        0    0.0000
    167 H         190.6408   78.4184  163.7845 H        12        0    0.0000
    168 H         189.4753   78.0015  161.6143 H        12        0    0.0000
    169 H         190.3918   79.2998  160.8578 H        12        0    0.0000
    170 C         188.8762   80.0010  162.2399 C.3      13        0    0.0000
    171 C         187.4357   79.4798  162.1362 C.3      13        0    0.0000
    172 H         189.0752   80.2447  163.2914 H        13        0    0.0000
    173 H         189.0058   80.9303  161.6729 H        13        0    0.0000
    174 H         187.0021   79.6984  161.1533 H        13        0    0.0000
    175 H         187.4614   78.3867  162.2316 H        13        0    0.0000
    176 C         182.9538   79.0092  163.1552 C.3      14        0    0.0000
    177 C         184.3219   78.8987  162.4839 C.3      14        0    0.0000
    178 C         185.3722   79.0082  163.6028 C.3      14        0    0.0000
    179 C         186.4836   80.0102  163.2635 C.3      14        0    0.0000
    180 C         184.5672   79.3684  164.8610 C.3      14        0    0.0000
    181 C         183.1886   78.7322  164.6423 C.3      14        0    0.0000
    182 C         183.1317   77.2264  164.9582 C.3      14        0    0.0000
    183 H         182.5805   80.0341  163.0332 H        14        0    0.0000
    184 H         182.2167   78.3405  162.6998 H        14        0    0.0000
    185 H         184.4343   79.6721  161.7163 H        14        0    0.0000
    186 H         184.4200   77.9293  161.9812 H        14        0    0.0000
    187 H         185.8182   78.0136  163.7449 H        14        0    0.0000
    188 H         187.0688   80.2477  164.1594 H        14        0    0.0000
    189 H         186.0322   80.9495  162.9221 H        14        0    0.0000
    190 H         185.0593   79.0238  165.7757 H        14        0    0.0000
    191 H         184.4515   80.4572  164.9403 H        14        0    0.0000
    192 H         182.4314   79.2558  165.2398 H        14        0    0.0000
    193 H         183.9145   76.9394  165.6685 H        14        0    0.0000
    194 H         183.3189   76.6576  164.0393 H        14        0    0.0000
    195 C         181.7439   76.7984  165.5138 C.3      15        0    0.0000
    196 C         181.8148   76.0097  166.8292 C.3      15        0    0.0000
    197 H         181.1790   77.7207  165.6999 H        15        0    0.0000
    198 H         181.1934   76.2434  164.7451 H        15        0    0.0000
    199 H         181.8810   74.9310  166.6445 H        15        0    0.0000
    200 H         182.7382   76.2962  167.3486 H        15        0    0.0000
    201 C         179.8881   78.9265  170.2739 C.3      16        0    0.0000
    202 C         180.9683   78.0396  169.6565 C.3      16        0    0.0000
    203 C         180.5521   77.7892  168.1967 C.3      16        0    0.0000
    204 C         180.6311   76.3054  167.8140 C.3      16        0    0.0000
    205 C         179.1430   78.3910  168.0830 C.3      16        0    0.0000
    206 C         179.1220   79.5401  169.0990 C.3      16        0    0.0000
    207 C         179.7862   80.8360  168.5993 C.3      16        0    0.0000
    208 H         179.2061   78.2984  170.8611 H        16        0    0.0000
    209 H         180.3081   79.6726  170.9557 H        16        0    0.0000
    210 H         181.0787   77.1147  170.2332 H        16        0    0.0000
    211 H         181.9377   78.5513  169.6799 H        16        0    0.0000
    212 H         181.2312   78.3623  167.5497 H        16        0    0.0000
    213 H         179.6866   75.9771  167.3649 H        16        0    0.0000
    214 H         180.7761   75.7051  168.7202 H        16        0    0.0000
    215 H         178.9164   78.7154  167.0627 H        16        0    0.0000
    216 H         178.3871   77.6471  168.3668 H        16        0    0.0000
    217 H         178.0901   79.7569  169.4035 H        16        0    0.0000
    218 H         180.4989   80.6320  167.7930 H        16        0    0.0000
    219 H         180.3603   81.2863  169.4182 H        16        0    0.0000
    220 C         176.0766   83.9911  169.7517 C.3      17        0    0.0000
    221 C         177.4945   83.8176  169.2011 C.3      17        0    0.0000
    222 C         177.7883   82.3120  169.2346 C.3      17        0    0.0000
    223 C         178.7398   81.8795  168.1156 C.3      17        0    0.0000
    224 C         176.3926   81.6833  169.1645 C.3      17        0    0.0000
    225 C         175.5727   82.5832  170.0950 C.3      17        0    0.0000
    226 C         174.0555   82.4529  169.9348 C.3      17        0    0.0000
    227 H         176.0669   84.6381  170.6354 H        17        0    0.0000
    228 H         175.4461   84.4689  168.9923 H        17        0    0.0000
    229 H         178.2261   84.3738  169.7970 H        17        0    0.0000
    230 H         177.5402   84.2126  168.1791 H        17        0    0.0000
    231 H         178.2327   82.0713  170.2114 H        17        0    0.0000
    232 H         179.2739   82.7583  167.7349 H        17        0    0.0000
    233 H         178.1732   81.4649  167.2737 H        17        0    0.0000
    234 H         176.3959   80.6417  169.5013 H        17        0    0.0000
    235 H         175.9988   81.7139  168.1409 H        17        0    0.0000
    236 H         175.8548   82.3624  171.1348 H        17        0    0.0000
    237 H         173.7912   82.3658  168.8744 H        17        0    0.0000
    238 H         173.5726   83.3643  170.3071 H        17        0    0.0000
    239 C         177.0014   80.1695  171.2047 C.3      18        0    0.0000
    240 C         175.8672   80.3977  170.2025 C.3      18        0    0.0000
    241 C         174.5513   80.1680  170.9672 C.3      18        0    0.0000
    242 C         173.4814   81.2368  170.7123 C.3      18        0    0.0000
    243 C         174.9713   80.1024  172.4391 C.3      18        0    0.0000
    244 C         176.3682   79.4727  172.4140 C.3      18        0    0.0000
    245 C         176.3191   77.9395  172.2721 C.3      18        0    0.0000
    246 H         177.8324   79.6137  170.7600 H        18        0    0.0000
    247 H         177.3974   81.1441  171.5179 H        18        0    0.0000
    248 H         175.9413   81.4038  169.7754 H        18        0    0.0000
    249 H         175.9437   79.6867  169.3716 H        18        0    0.0000
    250 H         174.1537   79.1835  170.6816 H        18        0    0.0000
    251 H         172.6657   80.8008  170.1233 H        18        0    0.0000
    252 H         173.0443   81.5745  171.6590 H        18        0    0.0000
    253 H         174.2587   79.5322  173.0439 H        18        0    0.0000
    254 H         175.0331   81.1126  172.8642 H        18        0    0.0000
    255 H         176.9077   79.7373  173.3323 H        18        0    0.0000
    256 H         177.3238   77.5052  172.3207 H        18        0    0.0000
    257 H         175.9061   77.6779  171.2906 H        18        0    0.0000
    258 C         172.6901   78.7394  175.4123 C.3      19        0    0.0000
    259 C         173.4148   78.7478  174.0641 C.3      19        0    0.0000
    260 C         174.8693   78.3291  174.3436 C.3      19        0    0.0000
    261 C         175.4227   77.2869  173.3640 C.3      19        0    0.0000
    262 C         174.8491   77.8192  175.7882 C.3      19        0    0.0000
    263 C         173.7838   78.6733  176.4839 C.3      19        0    0.0000
    264 C         174.3166   80.0600  176.8915 C.3      19        0    0.0000
    265 H         172.0185   79.5966  175.5191 H        19        0    0.0000
    266 H         172.0705   77.8357  175.4746 H        19        0    0.0000
    267 H         172.9067   78.0783  173.3613 H        19        0    0.0000
    268 H         173.3945   79.7527  173.6264 H        19        0    0.0000
    269 H         175.5001   79.2289  174.3081 H        19        0    0.0000
    270 H         176.0236   76.5537  173.9151 H        19        0    0.0000
    271 H         174.6035   76.7342  172.8899 H        19        0    0.0000
    272 H         175.8324   77.8953  176.2637 H        19        0    0.0000
    273 H         174.5480   76.7640  175.8166 H        19        0    0.0000
    274 H         173.4145   78.1479  177.3738 H        19        0    0.0000
    275 H         174.4297   80.7127  176.0189 H        19        0    0.0000
    276 H         175.3119   79.9505  177.3385 H        19        0    0.0000
    277 C         173.3909   80.7507  177.9345 C.3      20        0    0.0000
    278 C         173.0330   82.2026  177.5863 C.3      20        0    0.0000
    279 H         172.4606   80.1691  177.9667 H        20        0    0.0000
    280 H         173.8400   80.6788  178.9321 H        20        0    0.0000
    281 H         173.8924   82.8692  177.7238 H        20        0    0.0000
    282 H         172.7721   82.2428  176.5210 H        20        0    0.0000
    283 C         170.1330   79.8231  179.8121 C.3      21        0    0.0000
    284 C         171.4353   80.3911  179.2502 C.3      21        0    0.0000
    285 C         171.4446   81.8917  179.5892 C.3      21        0    0.0000
    286 C         171.7990   82.7616  178.3759 C.3      21        0    0.0000
    287 C         170.0506   82.1694  180.1728 C.3      21        0    0.0000
    288 C         169.6284   80.8493  180.8300 C.3      21        0    0.0000
    289 C         170.2372   80.6161  182.2248 C.3      21        0    0.0000
    290 H         169.4036   79.7344  178.9968 H        21        0    0.0000
    291 H         170.2687   78.8226  180.2346 H        21        0    0.0000
    292 H         171.5040   80.1965  178.1743 H        21        0    0.0000
    293 H         172.2963   79.9024  179.7214 H        21        0    0.0000
    294 H         172.1933   82.0546  180.3773 H        21        0    0.0000
    295 H         171.9989   83.7922  178.6915 H        21        0    0.0000
    296 H         170.9404   82.8000  177.6948 H        21        0    0.0000
    297 H         170.0581   83.0132  180.8696 H        21        0    0.0000
    298 H         169.3430   82.4128  179.3695 H        21        0    0.0000
    299 H         168.5345   80.7941  180.8992 H        21        0    0.0000
    300 H         171.2875   80.9253  182.2569 H        21        0    0.0000
    301 H         170.2196   79.5432  182.4515 H        21        0    0.0000
    302 C         167.1516   84.1724  183.8721 C.3      22        0    0.0000
    303 C         168.6095   83.7343  183.7413 C.3      22        0    0.0000
    304 C         168.6236   82.5284  182.7860 C.3      22        0    0.0000
    305 C         169.4440   81.3557  183.3392 C.3      22        0    0.0000
    306 C         167.1415   82.1993  182.5497 C.3      22        0    0.0000
    307 C         166.4127   83.5418  182.6888 C.3      22        0    0.0000
    308 C         166.4825   84.4305  181.4335 C.3      22        0    0.0000
    309 H         166.7431   83.7711  184.8083 H        22        0    0.0000
    310 H         167.0515   85.2614  183.9163 H        22        0    0.0000
    311 H         169.0286   83.5027  184.7267 H        22        0    0.0000
    312 H         169.2126   84.5461  183.3176 H        22        0    0.0000
    313 H         169.0656   82.8572  181.8348 H        22        0    0.0000
    314 H         168.7908   80.6461  183.8601 H        22        0    0.0000
    315 H         170.1584   81.7318  184.0814 H        22        0    0.0000
    316 H         166.9772   81.7197  181.5798 H        22        0    0.0000
    317 H         166.7763   81.5108  183.3229 H        22        0    0.0000
    318 H         165.3613   83.3755  182.9560 H        22        0    0.0000
    319 H         166.3747   83.8365  180.5196 H        22        0    0.0000
    320 H         167.4691   84.9067  181.3829 H        22        0    0.0000
    321 C         164.5256   87.9866  184.1126 C.3      23        0    0.0000
    322 C         165.6378   87.1695  183.4506 C.3      23        0    0.0000
    323 C         164.9742   85.9024  182.8819 C.3      23        0    0.0000
    324 C         165.4072   85.5536  181.4526 C.3      23        0    0.0000
    325 C         163.4709   86.1795  182.9849 C.3      23        0    0.0000
    326 C         163.3233   87.0448  184.2410 C.3      23        0    0.0000
    327 C         163.3439   86.2098  185.5354 C.3      23        0    0.0000
    328 H         164.8498   88.4209  185.0631 H        23        0    0.0000
    329 H         164.2595   88.8215  183.4518 H        23        0    0.0000
    330 H         166.1372   87.7699  182.6822 H        23        0    0.0000
    331 H         166.3984   86.8915  184.1895 H        23        0    0.0000
    332 H         165.2123   85.0602  183.5472 H        23        0    0.0000
    333 H         164.5356   85.2106  180.8826 H        23        0    0.0000
    334 H         165.7912   86.4436  180.9409 H        23        0    0.0000
    335 H         162.8860   85.2553  183.0341 H        23        0    0.0000
    336 H         163.1257   86.7441  182.1091 H        23        0    0.0000
    337 H         162.3862   87.6134  184.1881 H        23        0    0.0000
    338 H         164.3675   85.9341  185.8123 H        23        0    0.0000
    339 H         162.7947   85.2746  185.3739 H        23        0    0.0000
    340 C         163.3850   90.6271  187.4499 C.3      24        0    0.0000
    341 C         163.8383   89.1743  187.4113 C.3      24        0    0.0000
    342 C         162.7290   88.4916  186.6045 C.3      24        0    0.0000
    343 C         162.6757   86.9652  186.7207 C.3      24        0    0.0000
    344 C         161.4332   89.2327  186.9882 C.3      24        0    0.0000
    345 C         161.8825   90.5090  187.7262 C.3      24        0    0.0000
    346 C         161.0591   91.7666  187.4318 C.3      24        0    0.0000
    347 H         163.9028   91.1963  188.2281 H        24        0    0.0000
    348 H         163.5904   91.1045  186.4855 H        24        0    0.0000
    349 H         164.8186   89.0644  186.9374 H        24        0    0.0000
    350 H         163.9075   88.7811  188.4315 H        24        0    0.0000
    351 H         162.9202   88.7177  185.5446 H        24        0    0.0000
    352 H         163.1647   86.6599  187.6534 H        24        0    0.0000
    353 H         161.6289   86.6477  186.7953 H        24        0    0.0000
    354 H         160.7824   88.6419  187.6417 H        24        0    0.0000
    355 H         160.8521   89.4458  186.0845 H        24        0    0.0000
    356 H         161.7711   90.3074  188.8023 H        24        0    0.0000
    357 H         161.7003   92.6489  187.5444 H        24        0    0.0000
    358 H         160.7339   91.7451  186.3849 H        24        0    0.0000
    359 C         157.7296   95.0380  187.7753 C.3      25        0    0.0000
    360 C         158.3749   93.7512  187.2842 C.3      25        0    0.0000
    361 C         159.3337   93.3929  188.4214 C.3      25        0    0.0000
    362 C         159.8059   91.9390  188.3417 C.3      25        0    0.0000
    363 C         158.5401   93.7433  189.6934 C.3      25        0    0.0000
    364 C         157.4658   94.7624  189.2611 C.3      25        0    0.0000
    365 C         157.3462   96.0087  190.1474 C.3      25        0    0.0000
    366 H         156.8074   95.2659  187.2318 H        25        0    0.0000
    367 H         158.4213   95.8743  187.6267 H        25        0    0.0000
    368 H         157.6141   92.9730  187.1478 H        25        0    0.0000
    369 H         158.8960   93.8917  186.3323 H        25        0    0.0000
    370 H         160.2028   94.0643  188.3635 H        25        0    0.0000
    371 H         160.0331   91.5596  189.3450 H        25        0    0.0000
    372 H         158.9951   91.3159  187.9459 H        25        0    0.0000
    373 H         158.0444   92.8569  190.1087 H        25        0    0.0000
    374 H         159.2076   94.1270  190.4721 H        25        0    0.0000
    375 H         156.4977   94.2435  189.3245 H        25        0    0.0000
    376 H         156.9916   96.8487  189.5385 H        25        0    0.0000
    377 H         158.3435   96.2835  190.5112 H        25        0    0.0000
    378 C         155.2369   99.1982  192.4361 C.3      26        0    0.0000
    379 C         156.2307   98.4044  191.5845 C.3      26        0    0.0000
    380 C         156.4460   97.0584  192.2993 C.3      26        0    0.0000
    381 C         156.3997   95.8389  191.3704 C.3      26        0    0.0000
    382 C         155.3530   97.0165  193.3721 C.3      26        0    0.0000
    383 C         155.1641   98.4794  193.7876 C.3      26        0    0.0000
    384 C         156.2410   98.9511  194.7830 C.3      26        0    0.0000
    385 H         155.5168  100.2532  192.5115 H        26        0    0.0000
    386 H         154.2510   99.1606  191.9552 H        26        0    0.0000
    387 H         155.8430   98.2885  190.5664 H        26        0    0.0000
    388 H         157.1830   98.9421  191.5090 H        26        0    0.0000
    389 H         157.4210   97.0892  192.8065 H        26        0    0.0000
    390 H         156.7076   94.9461  191.9275 H        26        0    0.0000
    391 H         155.3751   95.6598  191.0245 H        26        0    0.0000
    392 H         155.6263   96.3681  194.2108 H        26        0    0.0000
    393 H         154.4161   96.6327  192.9480 H        26        0    0.0000
    394 H         154.1707   98.6093  194.2356 H        26        0    0.0000
    395 H         157.2374   98.9293  194.3278 H        26        0    0.0000
    396 H         156.2677   98.2687  195.6408 H        26        0    0.0000
    397 C         155.9487  100.3846  195.3137 C.3      27        0    0.0000
    398 C         156.7559  100.7638  196.5635 C.3      27        0    0.0000
    399 H         156.2188  101.0813  194.5097 H        27        0    0.0000
    400 H         154.8721  100.5036  195.4829 H        27        0    0.0000
    401 H         156.6994   99.9799  197.3278 H        27        0    0.0000
    402 H         157.8118  100.8453  196.2751 H        27        0    0.0000
    403 C         158.8206  103.1593  199.8760 C.3      28        0    0.0000
    404 C         158.4763  102.3102  198.6619 C.3      28        0    0.0000
    405 C         156.9479  102.4089  198.5773 C.3      28        0    0.0000
    406 C         156.3500  102.1428  197.1899 C.3      28        0    0.0000
    407 C         156.5822  103.7694  199.2057 C.3      28        0    0.0000
    408 C         157.9032  104.3734  199.7165 C.3      28        0    0.0000
    409 C         157.7802  105.1782  201.0127 C.3      28        0    0.0000
    410 H         158.5951  102.6113  200.7990 H        28        0    0.0000
    411 H         159.8783  103.4393  199.8934 H        28        0    0.0000
    412 H         158.9668  102.7245  197.7745 H        28        0    0.0000
    413 H         158.8134  101.2754  198.7782 H        28        0    0.0000
    414 H         156.5387  101.6353  199.2442 H        28        0    0.0000
    415 H         155.2566  102.1885  197.2590 H        28        0    0.0000
    416 H         156.6554  102.9455  196.5083 H        28        0    0.0000
    417 H         155.8769  103.6038  200.0296 H        28        0    0.0000
    418 H         156.0926  104.4501  198.5015 H        28        0    0.0000
    419 H         158.3159  105.0151  198.9244 H        28        0    0.0000
    420 H         157.5928  104.5063  201.8587 H        28        0    0.0000
    421 H         158.7316  105.6835  201.2171 H        28        0    0.0000
    422 C         156.0607  107.0358  197.2769 C.3      29        0    0.0000
    423 C         156.9538  106.5000  198.3872 C.3      29        0    0.0000
    424 C         155.9901  106.3783  199.5722 C.3      29        0    0.0000
    425 C         156.6521  106.2457  200.9471 C.3      29        0    0.0000
    426 C         155.0076  107.5558  199.4186 C.3      29        0    0.0000
    427 C         155.2263  108.1020  197.9941 C.3      29        0    0.0000
    428 C         153.9606  108.5516  197.2577 C.3      29        0    0.0000
    429 H         156.6429  107.4560  196.4509 H        29        0    0.0000
    430 H         155.4400  106.2259  196.8782 H        29        0    0.0000
    431 H         157.4031  105.5379  198.1221 H        29        0    0.0000
    432 H         157.7637  107.2105  198.5859 H        29        0    0.0000
    433 H         155.4073  105.4580  199.4160 H        29        0    0.0000
    434 H         157.0690  107.2170  201.2389 H        29        0    0.0000
    435 H         155.8865  105.9952  201.6909 H        29        0    0.0000
    436 H         155.1826  108.3542  200.1477 H        29        0    0.0000
    437 H         153.9843  107.2030  199.5869 H        29        0    0.0000
    438 H         155.8640  108.9935  198.0921 H        29        0    0.0000
    439 H         154.1095  108.4236  196.1790 H        29        0    0.0000
    440 H         153.1290  107.8955  197.5410 H        29        0    0.0000
    441 C         150.2406  110.9579  195.9774 C.3      30        0    0.0000
    442 C         151.1205  110.0225  196.7925 C.3      30        0    0.0000
    443 C         152.5293  110.5541  196.5213 C.3      30        0    0.0000
    444 C         153.5494  110.0289  197.5345 C.3      30        0    0.0000
    445 C         152.3499  112.0833  196.5218 C.3      30        0    0.0000
    446 C         150.8573  112.3398  196.2284 C.3      30        0    0.0000
    447 C         150.5699  113.3913  195.1493 C.3      30        0    0.0000
    448 H         149.1938  110.9137  196.2942 H        30        0    0.0000
    449 H         150.2830  110.6723  194.9208 H        30        0    0.0000
    450 H         150.8680  110.0955  197.8574 H        30        0    0.0000
    451 H         151.0053  108.9790  196.4838 H        30        0    0.0000
    452 H         152.8253  110.2439  195.5086 H        30        0    0.0000
    453 H         154.4458  110.6601  197.5306 H        30        0    0.0000
    454 H         153.1240  110.0928  198.5431 H        30        0    0.0000
    455 H         152.5999  112.5118  197.5004 H        30        0    0.0000
    456 H         153.0179  112.5512  195.7911 H        30        0    0.0000
    457 H         150.4160  112.7239  197.1602 H        30        0    0.0000
    458 H         149.6185  113.1515  194.6598 H        30        0    0.0000
    459 H         151.3451  113.3289  194.3763 H        30        0    0.0000
    460 C         147.0822  116.2883  194.9377 C.3      31        0    0.0000
    461 C         148.0085  115.0863  195.0396 C.3      31        0    0.0000
    462 C         149.4091  115.7119  195.0406 C.3      31        0    0.0000
    463 C         150.5097  114.8536  195.6769 C.3      31        0    0.0000
    464 C         149.2361  117.1208  195.6445 C.3      31        0    0.0000
    465 C         147.7264  117.2990  195.8889 C.3      31        0    0.0000
    466 C         147.2043  118.7198  195.6611 C.3      31        0    0.0000
    467 H         147.0649  116.6683  193.9089 H        31        0    0.0000
    468 H         146.0568  116.0412  195.2290 H        31        0    0.0000
    469 H         147.7993  114.5403  195.9659 H        31        0    0.0000
    470 H         147.8712  114.3926  194.2041 H        31        0    0.0000
    471 H         149.6976  115.8550  193.9885 H        31        0    0.0000
    472 H         151.4807  115.3311  195.4990 H        31        0    0.0000
    473 H         150.3644  114.8328  196.7635 H        31        0    0.0000
    474 H         149.6129  117.8638  194.9306 H        31        0    0.0000
    475 H         149.7974  117.2615  196.5742 H        31        0    0.0000
    476 H         147.5069  116.9888  196.9209 H        31        0    0.0000
    477 H         146.1727  118.8061  196.0223 H        31        0    0.0000
    478 H         147.8036  119.4246  196.2497 H        31        0    0.0000
    479 C         147.2608  119.1435  194.1666 C.3      32        0    0.0000
    480 C         145.9341  119.6935  193.6235 C.3      32        0    0.0000
    481 H         148.0150  119.9372  194.0906 H        32        0    0.0000
    482 H         147.6243  118.3066  193.5588 H        32        0    0.0000
    483 H         145.0958  119.0333  193.8752 H        32        0    0.0000
    484 H         145.7363  120.6538  194.1168 H        32        0    0.0000
    485 C         143.1901  121.2877  190.0412 C.3      33        0    0.0000
    486 C         143.5843  120.6320  191.3637 C.3      33        0    0.0000
    487 C         145.0054  121.1214  191.6922 C.3      33        0    0.0000
    488 C         145.9435  119.9708  192.0802 C.3      33        0    0.0000
    489 C         145.4502  121.8977  190.4431 C.3      33        0    0.0000
    490 C         144.1540  122.4610  189.8469 C.3      33        0    0.0000
    491 C         143.6445  123.7385  190.5388 C.3      33        0    0.0000
    492 H         143.3343  120.5635  189.2292 H        33        0    0.0000
    493 H         142.1365  121.5840  190.0266 H        33        0    0.0000
    494 H         143.5166  119.5414  191.2845 H        33        0    0.0000
    495 H         142.8961  120.9404  192.1595 H        33        0    0.0000
    496 H         144.9336  121.8241  192.5344 H        33        0    0.0000
    497 H         146.9665  120.1855  191.7501 H        33        0    0.0000
    498 H         145.6289  119.0569  191.5622 H        33        0    0.0000
    499 H         146.1857  122.6722  190.6815 H        33        0    0.0000
    500 H         145.9134  121.2172  189.7167 H        33        0    0.0000
    501 H         144.2850  122.6581  188.7752 H        33        0    0.0000
    502 H         144.0141  123.8077  191.5676 H        33        0    0.0000
    503 H         142.5501  123.7033  190.6010 H        33        0    0.0000
    504 C         146.8447  123.9493  187.4732 C.3      34        0    0.0000
    505 C         145.6080  123.6496  188.3064 C.3      34        0    0.0000
    506 C         145.4347  124.9250  189.1336 C.3      34        0    0.0000
    507 C         144.0404  125.0233  189.7574 C.3      34        0    0.0000
    508 C         145.7780  126.0530  188.1433 C.3      34        0    0.0000
    509 C         146.6404  125.4065  187.0397 C.3      34        0    0.0000
    510 C         147.9215  126.1673  186.6751 C.3      34        0    0.0000
    511 H         146.9320  123.2759  186.6148 H        34        0    0.0000
    512 H         147.7410  123.8236  188.0900 H        34        0    0.0000
    513 H         144.7426  123.4801  187.6542 H        34        0    0.0000
    514 H         145.7422  122.7638  188.9348 H        34        0    0.0000
    515 H         146.1934  124.9248  189.9297 H        34        0    0.0000
    516 H         143.9875  125.8866  190.4314 H        34        0    0.0000
    517 H         143.3009  125.1961  188.9664 H        34        0    0.0000
    518 H         144.8714  126.4714  187.6886 H        34        0    0.0000
    519 H         146.2844  126.8772  188.6566 H        34        0    0.0000
    520 H         146.0223  125.3872  186.1297 H        34        0    0.0000
    521 H         148.5762  125.5081  186.0929 H        34        0    0.0000
    522 H         148.4630  126.4140  187.5961 H        34        0    0.0000
    523 C         144.7314  129.4367  187.1653 C.3      35        0    0.0000
    524 C         145.7926  128.3470  187.3386 C.3      35        0    0.0000
    525 C         146.2240  127.9371  185.9243 C.3      35        0    0.0000
    526 C         147.6837  127.4779  185.8712 C.3      35        0    0.0000
    527 C         145.9167  129.1857  185.0909 C.3      35        0    0.0000
    528 C         144.5657  129.6399  185.6535 C.3      35        0    0.0000
    529 C         144.1777  131.0780  185.2986 C.3      35        0    0.0000
    530 H         143.7820  129.1483  187.6292 H        35        0    0.0000
    531 H         145.0682  130.3561  187.6592 H        35        0    0.0000
    532 H         145.3981  127.4888  187.8931 H        35        0    0.0000
    533 H         146.6354  128.7467  187.9152 H        35        0    0.0000
    534 H         145.5673  127.1212  185.5888 H        35        0    0.0000
    535 H         148.3257  128.2635  186.2873 H        35        0    0.0000
    536 H         147.9984  127.3304  184.8315 H        35        0    0.0000
    537 H         145.8593  128.9597  184.0215 H        35        0    0.0000
    538 H         146.6835  129.9563  185.2402 H        35        0    0.0000
    539 H         143.7876  128.9487  185.2982 H        35        0    0.0000
    540 H         143.7598  131.5865  186.1753 H        35        0    0.0000
    541 H         143.3893  131.0626  184.5365 H        35        0    0.0000
    542 C         148.1532  131.5809  187.3286 C.3      36        0    0.0000
    543 C         146.6833  131.4728  186.9474 C.3      36        0    0.0000
    544 C         146.7185  131.5725  185.4189 C.3      36        0    0.0000
    545 C         145.3789  131.8960  184.7502 C.3      36        0    0.0000
    546 C         147.8713  132.5452  185.1021 C.3      36        0    0.0000
    547 C         148.6613  132.7020  186.4162 C.3      36        0    0.0000
    548 C         150.1831  132.7883  186.2655 C.3      36        0    0.0000
    549 H         148.2842  131.8217  188.3881 H        36        0    0.0000
    550 H         148.6576  130.6285  187.1313 H        36        0    0.0000
    551 H         146.2408  130.5316  187.2880 H        36        0    0.0000
    552 H         146.1218  132.2967  187.4014 H        36        0    0.0000
    553 H         147.0255  130.5853  185.0418 H        36        0    0.0000
    554 H         145.1646  132.9639  184.8760 H        36        0    0.0000
    555 H         145.4641  131.7168  183.6718 H        36        0    0.0000
    556 H         147.5199  133.5270  184.7668 H        36        0    0.0000
    557 H         148.4788  132.1394  184.2860 H        36        0    0.0000
    558 H         148.3377  133.6520  186.8678 H        36        0    0.0000
    559 H         150.6415  132.7981  187.2615 H        36        0    0.0000
    560 H         150.5451  131.8846  185.7610 H        36        0    0.0000
    561 C         147.0641  134.8410  185.2313 C.3      37        0    0.0000
    562 C         148.2405  134.0674  184.6310 C.3      37        0    0.0000
    563 C         149.5093  134.8784  184.9500 C.3      37        0    0.0000
    564 C         150.6786  134.0358  185.4742 C.3      37        0    0.0000
    565 C         149.0461  135.9288  185.9645 C.3      37        0    0.0000
    566 C         147.5988  136.2376  185.5667 C.3      37        0    0.0000
    567 C         147.5116  137.2196  184.3830 C.3      37        0    0.0000
    568 H         146.1980  134.8486  184.5628 H        37        0    0.0000
    569 H         146.7505  134.3438  186.1582 H        37        0    0.0000
    570 H         148.2700  133.0520  185.0416 H        37        0    0.0000
    571 H         148.1216  133.9742  183.5452 H        37        0    0.0000
    572 H         149.8228  135.4021  184.0355 H        37        0    0.0000
    573 H         151.2867  133.6927  184.6286 H        37        0    0.0000
    574 H         151.3330  134.6428  186.1103 H        37        0    0.0000
    575 H         149.6875  136.8161  185.9579 H        37        0    0.0000
    576 H         149.0656  135.5133  186.9804 H        37        0    0.0000
    577 H         147.0616  136.6549  186.4278 H        37        0    0.0000
    578 H         146.6472  136.9976  183.7475 H        37        0    0.0000
    579 H         148.4043  137.1131  183.7553 H        37        0    0.0000
    580 C         145.2343  140.7389  182.5484 C.3      38        0    0.0000
    581 C         145.6801  139.3858  183.0813 C.3      38        0    0.0000
    582 C         147.0121  139.6953  183.7763 C.3      38        0    0.0000
    583 C         147.4312  138.6976  184.8635 C.3      38        0    0.0000
    584 C         146.9137  141.1663  184.2303 C.3      38        0    0.0000
    585 C         145.5644  141.6875  183.7027 C.3      38        0    0.0000
    586 C         145.5726  143.1530  183.2609 C.3      38        0    0.0000
    587 H         145.8036  140.9985  181.6475 H        38        0    0.0000
    588 H         144.1696  140.7491  182.2958 H        38        0    0.0000
    589 H         144.9289  139.0020  183.7800 H        38        0    0.0000
    590 H         145.7985  138.6499  182.2798 H        38        0    0.0000
    591 H         147.7941  139.6573  183.0033 H        38        0    0.0000
    592 H         148.4110  138.9921  185.2580 H        38        0    0.0000
    593 H         146.7243  138.7608  185.6994 H        38        0    0.0000
    594 H         147.7518  141.7291  183.8008 H        38        0    0.0000
    595 H         146.9758  141.2856  185.3171 H        38        0    0.0000
    596 H         144.8103  141.5463  184.4907 H        38        0    0.0000
    597 H         144.6768  143.6649  183.6319 H        38        0    0.0000
    598 H         146.4341  143.6618  183.7096 H        38        0    0.0000
    599 C         146.1077  146.7695  180.2115 C.3      39        0    0.0000
    600 C         146.3720  145.2705  180.1859 C.3      39        0    0.0000
    601 C         145.3719  144.7297  181.2131 C.3      39        0    0.0000
    602 C         145.6493  143.3098  181.7162 C.3      39        0    0.0000
    603 C         145.2830  145.8155  182.3034 C.3      39        0    0.0000
    604 C         145.9605  147.0651  181.7077 C.3      39        0    0.0000
    605 C         145.2980  148.4027  182.0515 C.3      39        0    0.0000
    606 H         146.9270  147.3368  179.7589 H        39        0    0.0000
    607 H         145.1909  146.9931  179.6550 H        39        0    0.0000
    608 H         146.2109  144.8439  179.1911 H        39        0    0.0000
    609 H         147.4095  145.0727  180.4770 H        39        0    0.0000
    610 H         144.3902  144.6991  180.7169 H        39        0    0.0000
    611 H         144.9315  142.6204  181.2562 H        39        0    0.0000
    612 H         146.6452  142.9984  181.3796 H        39        0    0.0000
    613 H         145.7916  145.5303  183.2307 H        39        0    0.0000
    614 H         144.2333  145.9849  182.5665 H        39        0    0.0000
    615 H         146.9773  147.1032  182.1268 H        39        0    0.0000
    616 H         146.0239  149.0384  182.5721 H        39        0    0.0000
    617 H         145.0343  148.9214  181.1222 H        39        0    0.0000
    618 C         143.5851  151.4395  184.8251 C.3      40        0    0.0000
    619 C         143.1323  149.9881  184.6478 C.3      40        0    0.0000
    620 C         143.3512  149.6368  183.1653 C.3      40        0    0.0000
    621 C         144.0200  148.2761  182.9340 C.3      40        0    0.0000
    622 C         144.1865  150.7981  182.6169 C.3      40        0    0.0000
    623 C         143.7173  152.0205  183.4131 C.3      40        0    0.0000
    624 C         142.3978  152.6030  182.8722 C.3      40        0    0.0000
    625 H         142.9056  152.0021  185.4723 H        40        0    0.0000
    626 H         144.5697  151.4454  185.3101 H        40        0    0.0000
    627 H         143.6915  149.3353  185.3271 H        40        0    0.0000
    628 H         142.0706  149.8861  184.9015 H        40        0    0.0000
    629 H         142.3750  149.6500  182.6599 H        40        0    0.0000
    630 H         144.3056  147.8430  183.9000 H        40        0    0.0000
    631 H         143.3154  147.5773  182.4685 H        40        0    0.0000
    632 H         144.0594  150.9202  181.5363 H        40        0    0.0000
    633 H         145.2535  150.6248  182.8077 H        40        0    0.0000
    634 H         144.4947  152.7948  183.3906 H        40        0    0.0000
    635 H         141.8045  153.0523  183.6762 H        40        0    0.0000
    636 H         141.7926  151.7957  182.4427 H        40        0    0.0000
    637 C         144.9525  155.2471  184.2015 C.3      41        0    0.0000
    638 C         143.4968  154.9660  183.8207 C.3      41        0    0.0000
    639 C         143.4566  154.8568  182.2859 C.3      41        0    0.0000
    640 C         142.6473  153.6643  181.7617 C.3      41        0    0.0000
    641 C         144.9294  154.7909  181.8690 C.3      41        0    0.0000
    642 C         145.6623  155.6505  182.9046 C.3      41        0    0.0000
    643 C         145.5557  157.1566  182.5992 C.3      41        0    0.0000
    644 H         145.0284  155.9942  184.9973 H        41        0    0.0000
    645 H         145.4021  154.3222  184.5849 H        41        0    0.0000
    646 H         143.1473  154.0565  184.3215 H        41        0    0.0000
    647 H         142.8505  155.7870  184.1523 H        41        0    0.0000
    648 H         143.0298  155.7873  181.8850 H        41        0    0.0000
    649 H         141.6767  154.0177  181.3937 H        41        0    0.0000
    650 H         143.1588  153.1984  180.9115 H        41        0    0.0000
    651 H         145.0811  155.1402  180.8425 H        41        0    0.0000
    652 H         145.2965  153.7579  181.9253 H        41        0    0.0000
    653 H         146.7198  155.3594  182.9422 H        41        0    0.0000
    654 H         144.6699  157.5946  183.0724 H        41        0    0.0000
    655 H         145.4440  157.3018  181.5182 H        41        0    0.0000
    656 C         150.0627  156.2074  183.1511 C.3      42        0    0.0000
    657 C         148.5663  156.0761  182.8720 C.3      42        0    0.0000
    658 C         148.0928  157.4445  182.3522 C.3      42        0    0.0000
    659 C         146.8233  157.9311  183.0633 C.3      42        0    0.0000
    660 C         149.3050  158.3715  182.5311 C.3      42        0    0.0000
    661 C         150.5266  157.4540  182.3932 C.3      42        0    0.0000
    662 C         150.9091  157.1276  180.9380 C.3      42        0    0.0000
    663 H         150.2106  156.3632  184.2274 H        42        0    0.0000
    664 H         150.6135  155.3022  182.8769 H        42        0    0.0000
    665 H         148.0358  155.7563  183.7756 H        42        0    0.0000
    666 H         148.3892  155.3109  182.1070 H        42        0    0.0000
    667 H         147.8847  157.3432  181.2777 H        42        0    0.0000
    668 H         146.6812  159.0052  182.8965 H        42        0    0.0000
    669 H         146.9380  157.7913  184.1450 H        42        0    0.0000
    670 H         149.3022  159.1946  181.8099 H        42        0    0.0000
    671 H         149.3006  158.8147  183.5355 H        42        0    0.0000
    672 H         151.3914  157.8965  182.9038 H        42        0    0.0000
    673 H         150.0641  156.6938  180.3927 H        42        0    0.0000
    674 H         151.7047  156.3727  180.9347 H        42        0    0.0000
    675 C         151.4310  158.3790  180.1768 C.3      43        0    0.0000
    676 C         151.5263  158.1893  178.6561 C.3      43        0    0.0000
    677 H         150.7188  159.1902  180.3748 H        43        0    0.0000
    678 H         152.3916  158.6950  180.6002 H        43        0    0.0000
    679 H         152.2391  157.3978  178.3967 H        43        0    0.0000
    680 H         150.5449  157.8593  178.2921 H        43        0    0.0000
    681 C         151.1841  162.2967  180.3479 C.3      44        0    0.0000
    682 C         151.0822  160.8327  179.9429 C.3      44        0    0.0000
    683 C         152.0484  160.7381  178.7575 C.3      44        0    0.0000
    684 C         151.8829  159.4994  177.8718 C.3      44        0    0.0000
    685 C         151.9350  162.0934  178.0324 C.3      44        0    0.0000
    686 C         151.1794  163.0252  178.9999 C.3      44        0    0.0000
    687 C         151.6676  164.4766  179.0353 C.3      44        0    0.0000
    688 H         150.3485  162.6039  180.9844 H        44        0    0.0000
    689 H         152.1138  162.4632  180.9031 H        44        0    0.0000
    690 H         151.3664  160.1619  180.7596 H        44        0    0.0000
    691 H         150.0514  160.5996  179.6542 H        44        0    0.0000
    692 H         153.0644  160.6885  179.1773 H        44        0    0.0000
    693 H         151.0975  159.6913  177.1310 H        44        0    0.0000
    694 H         152.8105  159.3330  177.3114 H        44        0    0.0000
    695 H         151.3867  162.0256  177.0865 H        44        0    0.0000
    696 H         152.9365  162.4601  177.7832 H        44        0    0.0000
    697 H         150.1340  163.0556  178.6575 H        44        0    0.0000
    698 H         150.8406  165.1395  178.7546 H        44        0    0.0000
    699 H         151.9445  164.7366  180.0639 H        44        0    0.0000
    700 C         155.2229  167.6880  177.6421 C.3      45        0    0.0000
    701 C         154.8226  166.3949  178.3571 C.3      45        0    0.0000
    702 C         153.3112  166.2359  178.1455 C.3      45        0    0.0000
    703 C         152.8810  164.7670  178.1017 C.3      45        0    0.0000
    704 C         153.0571  167.0145  176.8505 C.3      45        0    0.0000
    705 C         153.9367  168.2565  177.0283 C.3      45        0    0.0000
    706 C         154.2034  169.0392  175.7395 C.3      45        0    0.0000
    707 H         155.6773  168.4043  178.3350 H        45        0    0.0000
    708 H         155.9698  167.4628  176.8715 H        45        0    0.0000
    709 H         155.0677  166.4351  179.4239 H        45        0    0.0000
    710 H         155.3787  165.5530  177.9275 H        45        0    0.0000
    711 H         152.7941  166.7481  178.9700 H        45        0    0.0000
    712 H         153.7205  164.1345  178.4141 H        45        0    0.0000
    713 H         152.6299  164.4747  177.0754 H        45        0    0.0000
    714 H         152.0007  167.2753  176.7307 H        45        0    0.0000
    715 H         153.3707  166.4331  175.9745 H        45        0    0.0000
    716 H         153.4654  168.9168  177.7709 H        45        0    0.0000
    717 H         154.0417  168.3983  174.8650 H        45        0    0.0000
    718 H         155.2553  169.3482  175.7148 H        45        0    0.0000
    719 C         155.4849  173.2738  176.5367 C.3      46        0    0.0000
    720 C         155.3500  171.7902  176.2299 C.3      46        0    0.0000
    721 C         153.8466  171.5275  176.3841 C.3      46        0    0.0000
    722 C         153.3134  170.3070  175.6231 C.3      46        0    0.0000
    723 C         153.1535  172.8662  176.0569 C.3      46        0    0.0000
    724 C         154.2828  173.8841  175.8132 C.3      46        0    0.0000
    725 C         153.9791  175.3047  176.2955 C.3      46        0    0.0000
    726 H         155.4246  173.4449  177.6184 H        46        0    0.0000
    727 H         156.4348  173.6817  176.1777 H        46        0    0.0000
    728 H         155.7015  171.5936  175.2113 H        46        0    0.0000
    729 H         155.9446  171.1759  176.9135 H        46        0    0.0000
    730 H         153.6626  171.3316  177.4510 H        46        0    0.0000
    731 H         152.3101  170.0666  175.9947 H        46        0    0.0000
    732 H         153.2021  170.5660  174.5636 H        46        0    0.0000
    733 H         152.5293  173.1625  176.9091 H        46        0    0.0000
    734 H         152.4927  172.8061  175.1858 H        46        0    0.0000
    735 H         154.5020  173.9017  174.7357 H        46        0    0.0000
    736 H         153.5414  175.8950  175.4817 H        46        0    0.0000
    737 H         153.2283  175.2637  177.0934 H        46        0    0.0000
    738 C         158.6253  174.4250  176.1981 C.3      47        0    0.0000
    739 C         157.2036  174.3459  176.7368 C.3      47        0    0.0000
    740 C         156.5502  175.6076  176.1631 C.3      47        0    0.0000
    741 C         155.2415  176.0339  176.8352 C.3      47        0    0.0000
    742 C         157.6659  176.6708  176.1469 C.3      47        0    0.0000
    743 C         158.9807  175.9033  176.3874 C.3      47        0    0.0000
    744 C         160.1894  176.3967  175.5862 C.3      47        0    0.0000
    745 H         159.3065  173.7651  176.7441 H        47        0    0.0000
    746 H         158.6382  174.1298  175.1432 H        47        0    0.0000
    747 H         156.6932  173.4342  176.4113 H        47        0    0.0000
    748 H         157.2220  174.3530  177.8321 H        47        0    0.0000
    749 H         156.3055  175.3904  175.1124 H        47        0    0.0000
    750 H         155.3179  175.8539  177.9141 H        47        0    0.0000
    751 H         155.1069  177.1142  176.7048 H        47        0    0.0000
    752 H         157.5394  177.4325  176.9237 H        47        0    0.0000
    753 H         157.6519  177.2015  175.1888 H        47        0    0.0000
    754 H         159.2346  176.0368  177.4498 H        47        0    0.0000
    755 H         161.0819  176.3536  176.2216 H        47        0    0.0000
    756 H         160.3666  175.7131  174.7474 H        47        0    0.0000
    757 C         158.0806  179.8862  177.5473 C.3      48        0    0.0000
    758 C         158.8409  178.6176  177.1921 C.3      48        0    0.0000
    759 C         158.8989  178.6517  175.6597 C.3      48        0    0.0000
    760 C         160.0408  177.8444  175.0292 C.3      48        0    0.0000
    761 C         158.8519  180.1444  175.2735 C.3      48        0    0.0000
    762 C         158.6758  180.9216  176.5909 C.3      48        0    0.0000
    763 C         157.8046  182.1755  176.4829 C.3      48        0    0.0000
    764 H         157.0077  179.7495  177.3650 H        48        0    0.0000
    765 H         158.2170  180.1654  178.5966 H        48        0    0.0000
    766 H         159.8381  178.6498  177.6442 H        48        0    0.0000
    767 H         158.3345  177.7207  177.5623 H        48        0    0.0000
    768 H         157.9636  178.2032  175.2928 H        48        0    0.0000
    769 H         159.8812  177.7888  173.9458 H        48        0    0.0000
    770 H         160.9849  178.3811  175.1804 H        48        0    0.0000
    771 H         158.0038  180.3116  174.5978 H        48        0    0.0000
    772 H         159.7498  180.4796  174.7440 H        48        0    0.0000
    773 H         159.6734  181.1992  176.9614 H        48        0    0.0000
    774 H         157.1257  182.0918  175.6259 H        48        0    0.0000
    775 H         157.1744  182.2570  177.3765 H        48        0    0.0000
    776 C         159.2303  185.3080  179.0057 C.3      49        0    0.0000
    777 C         157.9738  184.5713  178.5339 C.3      49        0    0.0000
    778 C         157.9506  184.6816  177.0055 C.3      49        0    0.0000
    779 C         158.6452  183.4758  176.3450 C.3      49        0    0.0000
    780 C         158.6511  186.0257  176.7698 C.3      49        0    0.0000
    781 C         159.8028  186.0359  177.7781 C.3      49        0    0.0000
    782 C         160.3168  187.4519  178.0620 C.3      49        0    0.0000
    783 H         158.9722  185.9969  179.8181 H        49        0    0.0000
    784 H         159.9663  184.5995  179.4027 H        49        0    0.0000
    785 H         157.0916  185.0769  178.9469 H        49        0    0.0000
    786 H         157.9472  183.5373  178.8927 H        49        0    0.0000
    787 H         156.9128  184.7320  176.6519 H        49        0    0.0000
    788 H         159.6161  183.3104  176.8277 H        49        0    0.0000
    789 H         158.8514  183.6669  175.2864 H        49        0    0.0000
    790 H         157.9504  186.8432  176.9845 H        49        0    0.0000
    791 H         159.0065  186.1603  175.7438 H        49        0    0.0000
    792 H         160.6258  185.4322  177.3705 H        49        0    0.0000
    793 H         161.4033  187.4413  178.2069 H        49        0    0.0000
    794 H         159.8749  187.8192  178.9958 H        49        0    0.0000
    795 C         159.9545  188.4395  176.9158 C.3      50        0    0.0000
    796 C         159.3581  189.7681  177.4022 C.3      50        0    0.0000
    797 H         160.8873  188.6604  176.3813 H        50        0    0.0000
    798 H         159.2913  187.9440  176.1970 H        50        0    0.0000
    799 H         158.3440  189.6300  177.7951 H        50        0    0.0000
    800 H         159.9712  190.1311  178.2369 H        50        0    0.0000
    801 C         162.5346  190.9002  174.2577 C.3      51        0    0.0000
    802 C         161.5506  190.1641  175.1540 C.3      51        0    0.0000
    803 C         160.7474  191.2948  175.8092 C.3      51        0    0.0000
    804 C         159.3548  190.9001  176.3172 C.3      51        0    0.0000
    805 C         160.7783  192.4649  174.8045 C.3      51        0    0.0000
    806 C         161.6753  192.0055  173.6404 C.3      51        0    0.0000
    807 C         162.5241  193.1127  173.0108 C.3      51        0    0.0000
    808 H         163.3515  191.3216  174.8562 H        51        0    0.0000
    809 H         162.9696  190.2420  173.4994 H        51        0    0.0000
    810 H         160.9195  189.5087  174.5441 H        51        0    0.0000
    811 H         162.0605  189.5417  175.8960 H        51        0    0.0000
    812 H         161.3168  191.6238  176.6913 H        51        0    0.0000
    813 H         158.8647  191.7868  176.7368 H        51        0    0.0000
    814 H         158.7424  190.5753  175.4677 H        51        0    0.0000
    815 H         161.1947  193.3504  175.3007 H        51        0    0.0000
    816 H         159.7843  192.7441  174.4396 H        51        0    0.0000
    817 H         161.0333  191.5530  172.8706 H        51        0    0.0000
    818 H         163.2986  193.4416  173.7137 H        51        0    0.0000
    819 H         163.0453  192.7143  172.1322 H        51        0    0.0000
    820 C         161.5169  195.7223  169.6002 C.3      52        0    0.0000
    821 C         162.6599  195.0160  170.3342 C.3      52        0    0.0000
    822 C         162.5194  195.3814  171.8160 C.3      52        0    0.0000
    823 C         161.6751  194.3394  172.5736 C.3      52        0    0.0000
    824 C         161.8896  196.7783  171.7440 C.3      52        0    0.0000
    825 C         160.8613  196.6737  170.6149 C.3      52        0    0.0000
    826 C         160.4794  198.0446  170.0452 C.3      52        0    0.0000
    827 H         161.9104  196.2509  168.7245 H        52        0    0.0000
    828 H         160.7837  194.9933  169.2367 H        52        0    0.0000
    829 H         163.6149  195.4015  169.9553 H        52        0    0.0000
    830 H         162.6564  193.9363  170.1536 H        52        0    0.0000
    831 H         163.5122  195.4407  172.2802 H        52        0    0.0000
    832 H         160.8692  193.9844  171.9199 H        52        0    0.0000
    833 H         161.1928  194.7814  173.4520 H        52        0    0.0000
    834 H         162.6638  197.5130  171.4866 H        52        0    0.0000
    835 H         161.4316  197.1011  172.6838 H        52        0    0.0000
    836 H         159.9588  196.1879  171.0118 H        52        0    0.0000
    837 H         159.7447  198.5358  170.6937 H        52        0    0.0000
    838 H         160.0020  197.9122  169.0671 H        52        0    0.0000
    839 C         161.7210  198.9663  169.8744 C.3      53        0    0.0000
    840 C         161.6551  200.2606  170.6977 C.3      53        0    0.0000
    841 H         161.7685  199.2403  168.8126 H        53        0    0.0000
    842 H         162.6341  198.4005  170.0932 H        53        0    0.0000
    843 H         160.7118  200.7683  170.4590 H        53        0    0.0000
    844 H         161.6335  200.0486  171.7731 H        53        0    0.0000
    845 C         161.3391  203.7124  167.9041 C.3      54        0    0.0000
    846 C         161.1980  202.7065  169.0363 C.3      54        0    0.0000
    847 C         162.5753  202.0413  169.0774 C.3      54        0    0.0000
    848 C         162.8078  201.2757  170.3823 C.3      54        0    0.0000
    849 C         163.5518  203.2060  168.8313 C.3      54        0    0.0000
    850 C         162.7351  204.3082  168.1257 C.3      54        0    0.0000
    851 C         163.3917  204.9192  166.8813 C.3      54        0    0.0000
    852 H         160.5577  204.4781  167.9382 H        54        0    0.0000
    853 H         161.2588  203.1945  166.9423 H        54        0    0.0000
    854 H         160.9800  203.2237  169.9787 H        54        0    0.0000
    855 H         160.3961  201.9865  168.8471 H        54        0    0.0000
    856 H         162.6479  201.3474  168.2272 H        54        0    0.0000
    857 H         163.7619  200.7371  170.3400 H        54        0    0.0000
    858 H         162.8857  201.9888  171.2117 H        54        0    0.0000
    859 H         163.9434  203.6019  169.7766 H        54        0    0.0000
    860 H         164.4148  202.8700  168.2469 H        54        0    0.0000
    861 H         162.6230  205.1281  168.8506 H        54        0    0.0000
    862 H         162.6441  205.5039  166.3323 H        54        0    0.0000
    863 H         163.7098  204.1098  166.2133 H        54        0    0.0000
    864 C         166.9879  205.3200  170.0947 C.3      55        0    0.0000
    865 C         166.3343  204.7930  168.8264 C.3      55        0    0.0000
    866 C         165.1387  205.7321  168.6224 C.3      55        0    0.0000
    867 C         164.6186  205.8271  167.1824 C.3      55        0    0.0000
    868 C         165.5460  207.0723  169.2688 C.3      55        0    0.0000
    869 C         166.9276  206.8372  169.9063 C.3      55        0    0.0000
    870 C         167.1645  207.5914  171.2171 C.3      55        0    0.0000
    871 H         166.4142  205.0074  170.9757 H        55        0    0.0000
    872 H         168.0142  204.9575  170.2077 H        55        0    0.0000
    873 H         167.0481  204.8466  167.9973 H        55        0    0.0000
    874 H         166.0212  203.7495  168.9315 H        55        0    0.0000
    875 H         164.3097  205.3323  169.2252 H        55        0    0.0000
    876 H         164.3452  206.8678  166.9709 H        55        0    0.0000
    877 H         165.4292  205.5687  166.4909 H        55        0    0.0000
    878 H         164.8004  207.3441  170.0264 H        55        0    0.0000
    879 H         165.5863  207.8998  168.5528 H        55        0    0.0000
    880 H         167.6965  207.1241  169.1742 H        55        0    0.0000
    881 H         166.5580  207.1549  172.0195 H        55        0    0.0000
    882 H         168.2129  207.4763  171.5169 H        55        0    0.0000
    883 C         166.8428  209.1077  171.0992 C.3      56        0    0.0000
    884 C         167.9962  210.0254  171.5291 C.3      56        0    0.0000
    885 H         165.9883  209.3026  171.7599 H        56        0    0.0000
    886 H         166.5096  209.3365  170.0801 H        56        0    0.0000
    887 H         167.9489  210.1439  172.6192 H        56        0    0.0000
    888 H         168.9698  209.5741  171.3049 H        56        0    0.0000
    889 C         165.0877  213.8551  170.8940 C.3      57        0    0.0000
    890 C         165.7773  212.7012  171.6261 C.3      57        0    0.0000
    891 C         166.4908  211.8618  170.5511 C.3      57        0    0.0000
    892 C         167.9274  211.4660  170.9137 C.3      57        0    0.0000
    893 C         166.4247  212.7245  169.2867 C.3      57        0    0.0000
    894 C         165.0994  213.4844  169.4070 C.3      57        0    0.0000
    895 C         163.8904  212.6270  168.9872 C.3      57        0    0.0000
    896 H         164.0876  214.0506  171.2925 H        57        0    0.0000
    897 H         165.6769  214.7693  171.0414 H        57        0    0.0000
    898 H         166.4638  213.0950  172.3837 H        57        0    0.0000
    899 H         165.0370  212.0846  172.1491 H        57        0    0.0000
    900 H         165.8991  210.9521  170.3749 H        57        0    0.0000
    901 H         168.5492  211.4888  170.0109 H        57        0    0.0000
    902 H         168.3586  212.1898  171.6148 H        57        0    0.0000
    903 H         166.4879  212.1215  168.3751 H        57        0    0.0000
    904 H         167.2566  213.4404  169.2689 H        57        0    0.0000
    905 H         165.1372  214.3902  168.7885 H        57        0    0.0000
    906 H         163.0208  212.8316  169.6216 H        57        0    0.0000
    907 H         164.1350  211.5658  169.1145 H        57        0    0.0000
    908 C         163.5067  212.8600  167.4971 C.3      58        0    0.0000
    909 C         164.2020  211.9044  166.5171 C.3      58        0    0.0000
    910 H         162.4238  212.6984  167.4198 H        58        0    0.0000
    911 H         163.6871  213.9075  167.2286 H        58        0    0.0000
    912 H         164.4838  210.9653  167.0077 H        58        0    0.0000
    913 H         163.4843  211.6434  165.7288 H        58        0    0.0000
    914 C         168.4024  213.9532  165.6110 C.3      59        0    0.0000
    915 C         167.8208  212.9512  166.6119 C.3      59        0    0.0000
    916 C         166.3414  213.3132  166.7829 C.3      59        0    0.0000
    917 C         165.4532  212.5235  165.8030 C.3      59        0    0.0000
    918 C         166.3526  214.8293  166.5494 C.3      59        0    0.0000
    919 C         167.3253  215.0270  165.3841 C.3      59        0    0.0000
    920 C         167.8633  216.4605  165.3105 C.3      59        0    0.0000
    921 H         169.3346  214.3724  166.0064 H        59        0    0.0000
    922 H         168.6459  213.4559  164.6651 H        59        0    0.0000
    923 H         168.3365  213.0719  167.5730 H        59        0    0.0000
    924 H         167.9779  211.9160  166.2922 H        59        0    0.0000
    925 H         166.0211  213.0939  167.8095 H        59        0    0.0000
    926 H         166.0386  211.7060  165.3649 H        59        0    0.0000
    927 H         165.1238  213.1531  164.9696 H        59        0    0.0000
    928 H         166.7297  215.3326  167.4492 H        59        0    0.0000
    929 H         165.3648  215.2460  166.3309 H        59        0    0.0000
    930 H         166.7973  214.7952  164.4485 H        59        0    0.0000
    931 H         168.3237  216.6453  164.3330 H        59        0    0.0000
    932 H         168.6499  216.5932  166.0627 H        59        0    0.0000
    933 C         168.1657  220.4822  163.6919 C.3      60        0    0.0000
    934 C         168.3559  219.1034  164.3053 C.3      60        0    0.0000
    935 C         167.1462  218.9555  165.2369 C.3      60        0    0.0000
    936 C         166.7454  217.5118  165.5660 C.3      60        0    0.0000
    937 C         166.0338  219.8264  164.6175 C.3      60        0    0.0000
    938 C         166.6647  220.5223  163.3976 C.3      60        0    0.0000
    939 C         166.1643  221.9463  163.1432 C.3      60        0    0.0000
    940 H         168.4489  221.2602  164.4114 H        60        0    0.0000
    941 H         168.7683  220.6153  162.7883 H        60        0    0.0000
    942 H         168.3616  218.3476  163.5124 H        60        0    0.0000
    943 H         169.3026  219.0251  164.8489 H        60        0    0.0000
    944 H         167.4178  219.4269  166.1932 H        60        0    0.0000
    945 H         166.4465  217.4571  166.6196 H        60        0    0.0000
    946 H         165.8626  217.2415  164.9747 H        60        0    0.0000
    947 H         165.6977  220.5586  165.3622 H        60        0    0.0000
    948 H         165.1519  219.2493  164.3202 H        60        0    0.0000
    949 H         166.4711  219.9017  162.5105 H        60        0    0.0000
    950 H         166.2093  222.1773  162.0723 H        60        0    0.0000
    951 H         165.1101  222.0177  163.4363 H        60        0    0.0000
    952 C         164.9304  226.0965  164.6667 C.3      61        0    0.0000
    953 C         165.0310  224.6276  164.2474 C.3      61        0    0.0000
    954 C         166.4505  224.4326  163.6985 C.3      61        0    0.0000
    955 C         166.9748  223.0130  163.9316 C.3      61        0    0.0000
    956 C         167.2507  225.5327  164.4038 C.3      61        0    0.0000
    957 C         166.2933  226.7280  164.3537 C.3      61        0    0.0000
    958 C         166.6424  227.8660  165.3168 C.3      61        0    0.0000
    959 H         164.1263  226.6117  164.1302 H        61        0    0.0000
    960 H         164.6970  226.1556  165.7365 H        61        0    0.0000
    961 H         164.2795  224.3747  163.4917 H        61        0    0.0000
    962 H         164.8455  223.9861  165.1173 H        61        0    0.0000
    963 H         166.4334  224.6479  162.6201 H        61        0    0.0000
    964 H         166.9154  222.7762  165.0007 H        61        0    0.0000
    965 H         168.0328  222.9477  163.6518 H        61        0    0.0000
    966 H         168.1951  225.7434  163.8922 H        61        0    0.0000
    967 H         167.4749  225.2522  165.4406 H        61        0    0.0000
    968 H         166.2646  227.1115  163.3233 H        61        0    0.0000
    969 H         166.9050  227.4633  166.3020 H        61        0    0.0000
    970 H         165.7608  228.5023  165.4600 H        61        0    0.0000
    971 C         167.8080  228.7482  164.7914 C.3      62        0    0.0000
    972 C         167.6147  230.2508  165.0409 C.3      62        0    0.0000
    973 H         168.7126  228.4281  165.3242 H        62        0    0.0000
    974 H         167.9797  228.5391  163.7289 H        62        0    0.0000
    975 H         166.5535  230.5039  165.1491 H        62        0    0.0000
    976 H         168.0960  230.5021  165.9948 H        62        0    0.0000
    977 C         171.9041  231.2408  163.4532 C.3      63        0    0.0000
    978 C         170.7532  230.7047  164.3033 C.3      63        0    0.0000
    979 C         169.5451  230.5508  163.3632 C.3      63        0    0.0000
    980 C         168.2680  231.1672  163.9491 C.3      63        0    0.0000
    981 C         169.9965  231.1862  162.0391 C.3      63        0    0.0000
    982 C         171.5150  230.9730  161.9971 C.3      63        0    0.0000
    983 C         171.9419  229.5654  161.5421 C.3      63        0    0.0000
    984 H         171.9876  232.3237  163.6115 H        63        0    0.0000
    985 H         172.8647  230.7981  163.7348 H        63        0    0.0000
    986 H         170.5553  231.3767  165.1456 H        63        0    0.0000
    987 H         171.0172  229.7280  164.7257 H        63        0    0.0000
    988 H         169.3811  229.4765  163.1984 H        63        0    0.0000
    989 H         167.5417  231.3675  163.1528 H        63        0    0.0000
    990 H         168.5097  232.1337  164.4075 H        63        0    0.0000
    991 H         169.4778  230.7532  161.1782 H        63        0    0.0000
    992 H         169.7853  232.2635  162.0421 H        63        0    0.0000
    993 H         171.9841  231.7213  161.3456 H        63        0    0.0000
    994 H         171.1666  229.0939  160.9287 H        63        0    0.0000
    995 H         172.0757  228.9265  162.4234 H        63        0    0.0000
    996 C         176.6451  231.2395  161.2027 C.3      64        0    0.0000
    997 C         175.7150  230.0347  161.3672 C.3      64        0    0.0000
    998 C         174.2843  230.5883  161.3409 C.3      64        0    0.0000
    999 C         173.2836  229.5876  160.7565 C.3      64        0    0.0000
   1000 C         174.4284  231.8879  160.5419 C.3      64        0    0.0000
   1001 C         175.7377  232.4710  161.0839 C.3      64        0    0.0000
   1002 C         176.3563  233.5680  160.2131 C.3      64        0    0.0000
   1003 H         177.3291  231.3361  162.0527 H        64        0    0.0000
   1004 H         177.2600  231.1060  160.3045 H        64        0    0.0000
   1005 H         175.9127  229.5014  162.3033 H        64        0    0.0000
   1006 H         175.8864  229.3266  160.5475 H        64        0    0.0000
   1007 H         173.9956  230.8406  162.3717 H        64        0    0.0000
   1008 H         173.7199  228.5819  160.7831 H        64        0    0.0000
   1009 H         173.0859  229.8186  159.7032 H        64        0    0.0000
   1010 H         173.5822  232.5632  160.7033 H        64        0    0.0000
   1011 H         174.5054  231.6817  159.4670 H        64        0    0.0000
   1012 H         175.5555  232.8611  162.0959 H        64        0    0.0000
   1013 H         175.5950  234.0091  159.5592 H        64        0    0.0000
   1014 H         177.1168  233.1250  159.5589 H        64        0    0.0000
   1015 C         177.0234  234.6876  161.0583 C.3      65        0    0.0000
   1016 C         178.1254  235.4570  160.3160 C.3      65        0    0.0000
   1017 H         177.4775  234.1987  161.9298 H        65        0    0.0000
   1018 H         176.2543  235.3664  161.4452 H        65        0    0.0000
   1019 H         178.6503  234.7512  159.6596 H        65        0    0.0000
   1020 H         177.7024  236.2330  159.6673 H        65        0    0.0000
   1021 C         182.7963  237.0315  161.2103 C.3      66        0    0.0000
   1022 C         181.3600  237.4673  160.9106 C.3      66        0    0.0000
   1023 C         180.5740  236.1885  160.5701 C.3      66        0    0.0000
   1024 C         179.2074  236.0886  161.2590 C.3      66        0    0.0000
   1025 C         181.5131  235.0455  160.9685 C.3      66        0    0.0000
   1026 C         182.9200  235.5912  160.7013 C.3      66        0    0.0000
   1027 C         183.3103  235.5062  159.2136 C.3      66        0    0.0000
   1028 H         183.5294  237.7178  160.7758 H        66        0    0.0000
   1029 H         182.9495  237.0433  162.2971 H        66        0    0.0000
   1030 H         180.9448  238.0061  161.7694 H        66        0    0.0000
   1031 H         181.3402  238.1546  160.0567 H        66        0    0.0000
   1032 H         180.4329  236.1502  159.4805 H        66        0    0.0000
   1033 H         179.2970  235.4620  162.1544 H        66        0    0.0000
   1034 H         178.8748  237.0774  161.5951 H        66        0    0.0000
   1035 H         181.3004  234.1270  160.4118 H        66        0    0.0000
   1036 H         181.4059  234.8178  162.0370 H        66        0    0.0000
   1037 H         183.6505  235.0356  161.3029 H        66        0    0.0000
   1038 H         182.9053  236.3534  158.6491 H        66        0    0.0000
   1039 H         182.8806  234.5973  158.7759 H        66        0    0.0000
   1040 C         185.0487  236.6840  162.4758 C.3      67        0    0.0000
   1041 C         185.4281  235.5638  161.5084 C.3      67        0    0.0000
   1042 C         185.6009  236.2152  160.1254 C.3      67        0    0.0000
   1043 C         184.8540  235.4519  159.0237 C.3      67        0    0.0000
   1044 C         185.1275  237.6647  160.3139 C.3      67        0    0.0000
   1045 C         185.4350  237.9921  161.7807 C.3      67        0    0.0000
   1046 C         186.9036  238.3684  162.0485 C.3      67        0    0.0000
   1047 H         183.9625  236.6651  162.6321 H        67        0    0.0000
   1048 H         185.5185  236.5578  163.4562 H        67        0    0.0000
   1049 H         184.6657  234.7772  161.5170 H        67        0    0.0000
   1050 H         186.3725  235.1003  161.8171 H        67        0    0.0000
   1051 H         186.6744  236.2251  159.8893 H        67        0    0.0000
   1052 H         185.1854  234.4075  158.9921 H        67        0    0.0000
   1053 H         185.0988  235.8912  158.0491 H        67        0    0.0000
   1054 H         185.6114  238.3493  159.6104 H        67        0    0.0000
   1055 H         184.0444  237.7361  160.1496 H        67        0    0.0000
   1056 H         184.7842  238.8032  162.1315 H        67        0    0.0000
   1057 H         187.3863  238.7543  161.1441 H        67        0    0.0000
   1058 H         187.4592  237.4689  162.3404 H        67        0    0.0000
   1059 C         187.0398  239.4104  163.1946 C.3      68        0    0.0000
   1060 C         188.1827  240.4153  162.9916 C.3      68        0    0.0000
   1061 H         186.0963  239.9701  163.2277 H        68        0    0.0000
   1062 H         187.1306  238.8920  164.1563 H        68        0    0.0000
   1063 H         189.1611  239.9248  163.0550 H        68        0    0.0000
   1064 H         188.1013  240.8229  161.9758 H        68        0    0.0000
   1065 C         186.1645  239.1772  164.8855 C.3      69        0    0.0000
   1066 C         185.9374  240.6895  164.8092 C.3      69        0    0.0000
   1067 C         187.2615  241.3507  165.2072 C.3      69        0    0.0000
   1068 C         188.1393  241.6366  163.9741 C.3      69        0    0.0000
   1069 C         187.8521  240.3252  166.1833 C.3      69        0    0.0000
   1070 C         187.5374  238.9694  165.5462 C.3      69        0    0.0000
   1071 C         187.5860  237.8224  166.5621 C.3      69        0    0.0000
   1072 H         185.3519  238.7093  165.4527 H        69        0    0.0000
   1073 H         186.1565  238.7352  163.8826 H        69        0    0.0000
   1074 H         185.1617  240.9674  165.5340 H        69        0    0.0000
   1075 H         185.5793  240.9998  163.8223 H        69        0    0.0000
   1076 H         187.0632  242.2954  165.7297 H        69        0    0.0000
   1077 H         189.1636  241.8501  164.3027 H        69        0    0.0000
   1078 H         187.7921  242.5255  163.4368 H        69        0    0.0000
   1079 H         187.3476  240.4155  167.1543 H        69        0    0.0000
   1080 H         188.9243  240.4543  166.3583 H        69        0    0.0000
   1081 H         188.2765  238.7779  164.7556 H        69        0    0.0000
   1082 H         186.8045  237.9509  167.3199 H        69        0    0.0000
   1083 H         188.5470  237.8438  167.0896 H        69        0    0.0000
   1084 H         187.4719  236.8505  166.0820 H        69        0    0.0000
   1085 H         219.7971   78.6215  134.0380 H         0        0    0.0000
@<TRIPOS>BOND
     1     1     2      1
     2     1     6      1
     3     1     8      1
     4     1     9      1
     5     2     3      1
     6     2    10      1
     7     2    11      1
     8     3     4      1
     9     3     5      1
    10     3    12      1
    11     4    13      1
    12     4    14      1
    13     4  1085      H
    14     5     6      1
    15     5    15      1
    16     5    16      1
    17     6     7      1
    18     6    17      1
    19     7    18      1
    20     7    19      1
    21     7    23      1
    22    20    21      1
    23    20    25      1
    24    20    27      1
    25    20    28      1
    26    21    22      1
    27    21    29      1
    28    21    30      1
    29    22    23      1
    30    22    24      1
    31    22    31      1
    32    23    32      1
    33    23    33      1
    34    24    25      1
    35    24    34      1
    36    24    35      1
    37    25    26      1
    38    25    36      1
    39    26    37      1
    40    26    38      1
    41    26    39      1
    42    39    40      1
    43    39    41      1
    44    39    42      1
    45    40    43      1
    46    40    44      1
    47    40    48      1
    48    45    46      1
    49    45    50      1
    50    45    52      1
    51    45    53      1
    52    46    47      1
    53    46    54      1
    54    46    55      1
    55    47    48      1
    56    47    49      1
    57    47    56      1
    58    48    57      1
    59    48    58      1
    60    49    50      1
    61    49    59      1
    62    49    60      1
    63    50    51      1
    64    50    61      1
    65    51    62      1
    66    51    63      1
    67    51    64      1
    68    64    65      1
    69    64    66      1
    70    64    67      1
    71    65    68      1
    72    65    69      1
    73    65    73      1
    74    70    71      1
    75    70    75      1
    76    70    77      1
    77    70    78      1
    78    71    72      1
    79    71    79      1
    80    71    80      1
    81    72    73      1
    82    72    74      1
    83    72    81      1
    84    73    82      1
    85    73    83      1
    86    74    75      1
    87    74    84      1
    88    74    85      1
    89    75    76      1
    90    75    86      1
    91    76    87      1
    92    76    88      1
    93    76    92      1
    94    89    90      1
    95    89    94      1
    96    89    96      1
    97    89    97      1
    98    90    91      1
    99    90    98      1
   100    90    99      1
   101    91    92      1
   102    91    93      1
   103    91   100      1
   104    92   101      1
   105    92   102      1
   106    93    94      1
   107    93   103      1
   108    93   104      1
   109    94    95      1
   110    94   105      1
   111    95   106      1
   112    95   107      1
   113    95   108      1
   114   108   109      1
   115   108   110      1
   116   108   111      1
   117   109   112      1
   118   109   113      1
   119   109   114      1
   120   114   115      1
   121   114   116      1
   122   114   117      1
   123   115   118      1
   124   115   119      1
   125   115   120      1
   126   120   121      1
   127   120   122      1
   128   120   123      1
   129   121   124      1
   130   121   125      1
   131   121   126      1
   132   126   127      1
   133   126   128      1
   134   126   129      1
   135   127   130      1
   136   127   131      1
   137   127   135      1
   138   132   133      1
   139   132   137      1
   140   132   139      1
   141   132   140      1
   142   133   134      1
   143   133   141      1
   144   133   142      1
   145   134   135      1
   146   134   136      1
   147   134   143      1
   148   135   144      1
   149   135   145      1
   150   136   137      1
   151   136   146      1
   152   136   147      1
   153   137   138      1
   154   137   148      1
   155   138   149      1
   156   138   150      1
   157   138   154      1
   158   151   152      1
   159   151   156      1
   160   151   158      1
   161   151   159      1
   162   152   153      1
   163   152   160      1
   164   152   161      1
   165   153   154      1
   166   153   155      1
   167   153   162      1
   168   154   163      1
   169   154   164      1
   170   155   156      1
   171   155   165      1
   172   155   166      1
   173   156   157      1
   174   156   167      1
   175   157   168      1
   176   157   169      1
   177   157   170      1
   178   170   171      1
   179   170   172      1
   180   170   173      1
   181   171   174      1
   182   171   175      1
   183   171   179      1
   184   176   177      1
   185   176   181      1
   186   176   183      1
   187   176   184      1
   188   177   178      1
   189   177   185      1
   190   177   186      1
   191   178   179      1
   192   178   180      1
   193   178   187      1
   194   179   188      1
   195   179   189      1
   196   180   181      1
   197   180   190      1
   198   180   191      1
   199   181   182      1
   200   181   192      1
   201   182   193      1
   202   182   194      1
   203   182   195      1
   204   195   196      1
   205   195   197      1
   206   195   198      1
   207   196   199      1
   208   196   200      1
   209   196   204      1
   210   201   202      1
   211   201   206      1
   212   201   208      1
   213   201   209      1
   214   202   203      1
   215   202   210      1
   216   202   211      1
   217   203   204      1
   218   203   205      1
   219   203   212      1
   220   204   213      1
   221   204   214      1
   222   205   206      1
   223   205   215      1
   224   205   216      1
   225   206   207      1
   226   206   217      1
   227   207   218      1
   228   207   219      1
   229   207   223      1
   230   220   221      1
   231   220   225      1
   232   220   227      1
   233   220   228      1
   234   221   222      1
   235   221   229      1
   236   221   230      1
   237   222   223      1
   238   222   224      1
   239   222   231      1
   240   223   232      1
   241   223   233      1
   242   224   225      1
   243   224   234      1
   244   224   235      1
   245   225   226      1
   246   225   236      1
   247   226   237      1
   248   226   238      1
   249   226   242      1
   250   239   240      1
   251   239   244      1
   252   239   246      1
   253   239   247      1
   254   240   241      1
   255   240   248      1
   256   240   249      1
   257   241   242      1
   258   241   243      1
   259   241   250      1
   260   242   251      1
   261   242   252      1
   262   243   244      1
   263   243   253      1
   264   243   254      1
   265   244   245      1
   266   244   255      1
   267   245   256      1
   268   245   257      1
   269   245   261      1
   270   258   259      1
   271   258   263      1
   272   258   265      1
   273   258   266      1
   274   259   260      1
   275   259   267      1
   276   259   268      1
   277   260   261      1
   278   260   262      1
   279   260   269      1
   280   261   270      1
   281   261   271      1
   282   262   263      1
   283   262   272      1
   284   262   273      1
   285   263   264      1
   286   263   274      1
   287   264   275      1
   288   264   276      1
   289   264   277      1
   290   277   278      1
   291   277   279      1
   292   277   280      1
   293   278   281      1
   294   278   282      1
   295   278   286      1
   296   283   284      1
   297   283   288      1
   298   283   290      1
   299   283   291      1
   300   284   285      1
   301   284   292      1
   302   284   293      1
   303   285   286      1
   304   285   287      1
   305   285   294      1
   306   286   295      1
   307   286   296      1
   308   287   288      1
   309   287   297      1
   310   287   298      1
   311   288   289      1
   312   288   299      1
   313   289   300      1
   314   289   301      1
   315   289   305      1
   316   302   303      1
   317   302   307      1
   318   302   309      1
   319   302   310      1
   320   303   304      1
   321   303   311      1
   322   303   312      1
   323   304   305      1
   324   304   306      1
   325   304   313      1
   326   305   314      1
   327   305   315      1
   328   306   307      1
   329   306   316      1
   330   306   317      1
   331   307   308      1
   332   307   318      1
   333   308   319      1
   334   308   320      1
   335   308   324      1
   336   321   322      1
   337   321   326      1
   338   321   328      1
   339   321   329      1
   340   322   323      1
   341   322   330      1
   342   322   331      1
   343   323   324      1
   344   323   325      1
   345   323   332      1
   346   324   333      1
   347   324   334      1
   348   325   326      1
   349   325   335      1
   350   325   336      1
   351   326   327      1
   352   326   337      1
   353   327   338      1
   354   327   339      1
   355   327   343      1
   356   340   341      1
   357   340   345      1
   358   340   347      1
   359   340   348      1
   360   341   342      1
   361   341   349      1
   362   341   350      1
   363   342   343      1
   364   342   344      1
   365   342   351      1
   366   343   352      1
   367   343   353      1
   368   344   345      1
   369   344   354      1
   370   344   355      1
   371   345   346      1
   372   345   356      1
   373   346   357      1
   374   346   358      1
   375   346   362      1
   376   359   360      1
   377   359   364      1
   378   359   366      1
   379   359   367      1
   380   360   361      1
   381   360   368      1
   382   360   369      1
   383   361   362      1
   384   361   363      1
   385   361   370      1
   386   362   371      1
   387   362   372      1
   388   363   364      1
   389   363   373      1
   390   363   374      1
   391   364   365      1
   392   364   375      1
   393   365   376      1
   394   365   377      1
   395   365   381      1
   396   378   379      1
   397   378   383      1
   398   378   385      1
   399   378   386      1
   400   379   380      1
   401   379   387      1
   402   379   388      1
   403   380   381      1
   404   380   382      1
   405   380   389      1
   406   381   390      1
   407   381   391      1
   408   382   383      1
   409   382   392      1
   410   382   393      1
   411   383   384      1
   412   383   394      1
   413   384   395      1
   414   384   396      1
   415   384   397      1
   416   397   398      1
   417   397   399      1
   418   397   400      1
   419   398   401      1
   420   398   402      1
   421   398   406      1
   422   403   404      1
   423   403   408      1
   424   403   410      1
   425   403   411      1
   426   404   405      1
   427   404   412      1
   428   404   413      1
   429   405   406      1
   430   405   407      1
   431   405   414      1
   432   406   415      1
   433   406   416      1
   434   407   408      1
   435   407   417      1
   436   407   418      1
   437   408   409      1
   438   408   419      1
   439   409   420      1
   440   409   421      1
   441   409   425      1
   442   422   423      1
   443   422   427      1
   444   422   429      1
   445   422   430      1
   446   423   424      1
   447   423   431      1
   448   423   432      1
   449   424   425      1
   450   424   426      1
   451   424   433      1
   452   425   434      1
   453   425   435      1
   454   426   427      1
   455   426   436      1
   456   426   437      1
   457   427   428      1
   458   427   438      1
   459   428   439      1
   460   428   440      1
   461   428   444      1
   462   441   442      1
   463   441   446      1
   464   441   448      1
   465   441   449      1
   466   442   443      1
   467   442   450      1
   468   442   451      1
   469   443   444      1
   470   443   445      1
   471   443   452      1
   472   444   453      1
   473   444   454      1
   474   445   446      1
   475   445   455      1
   476   445   456      1
   477   446   447      1
   478   446   457      1
   479   447   458      1
   480   447   459      1
   481   447   463      1
   482   460   461      1
   483   460   465      1
   484   460   467      1
   485   460   468      1
   486   461   462      1
   487   461   469      1
   488   461   470      1
   489   462   463      1
   490   462   464      1
   491   462   471      1
   492   463   472      1
   493   463   473      1
   494   464   465      1
   495   464   474      1
   496   464   475      1
   497   465   466      1
   498   465   476      1
   499   466   477      1
   500   466   478      1
   501   466   479      1
   502   479   480      1
   503   479   481      1
   504   479   482      1
   505   480   483      1
   506   480   484      1
   507   480   488      1
   508   485   486      1
   509   485   490      1
   510   485   492      1
   511   485   493      1
   512   486   487      1
   513   486   494      1
   514   486   495      1
   515   487   488      1
   516   487   489      1
   517   487   496      1
   518   488   497      1
   519   488   498      1
   520   489   490      1
   521   489   499      1
   522   489   500      1
   523   490   491      1
   524   490   501      1
   525   491   502      1
   526   491   503      1
   527   491   507      1
   528   504   505      1
   529   504   509      1
   530   504   511      1
   531   504   512      1
   532   505   506      1
   533   505   513      1
   534   505   514      1
   535   506   507      1
   536   506   508      1
   537   506   515      1
   538   507   516      1
   539   507   517      1
   540   508   509      1
   541   508   518      1
   542   508   519      1
   543   509   510      1
   544   509   520      1
   545   510   521      1
   546   510   522      1
   547   510   526      1
   548   523   524      1
   549   523   528      1
   550   523   530      1
   551   523   531      1
   552   524   525      1
   553   524   532      1
   554   524   533      1
   555   525   526      1
   556   525   527      1
   557   525   534      1
   558   526   535      1
   559   526   536      1
   560   527   528      1
   561   527   537      1
   562   527   538      1
   563   528   529      1
   564   528   539      1
   565   529   540      1
   566   529   541      1
   567   529   545      1
   568   542   543      1
   569   542   547      1
   570   542   549      1
   571   542   550      1
   572   543   544      1
   573   543   551      1
   574   543   552      1
   575   544   545      1
   576   544   546      1
   577   544   553      1
   578   545   554      1
   579   545   555      1
   580   546   547      1
   581   546   556      1
   582   546   557      1
   583   547   548      1
   584   547   558      1
   585   548   559      1
   586   548   560      1
   587   548   564      1
   588   561   562      1
   589   561   566      1
   590   561   568      1
   591   561   569      1
   592   562   563      1
   593   562   570      1
   594   562   571      1
   595   563   564      1
   596   563   565      1
   597   563   572      1
   598   564   573      1
   599   564   574      1
   600   565   566      1
   601   565   575      1
   602   565   576      1
   603   566   567      1
   604   566   577      1
   605   567   578      1
   606   567   579      1
   607   567   583      1
   608   580   581      1
   609   580   585      1
   610   580   587      1
   611   580   588      1
   612   581   582      1
   613   581   589      1
   614   581   590      1
   615   582   583      1
   616   582   584      1
   617   582   591      1
   618   583   592      1
   619   583   593      1
   620   584   585      1
   621   584   594      1
   622   584   595      1
   623   585   586      1
   624   585   596      1
   625   586   597      1
   626   586   598      1
   627   586   602      1
   628   599   600      1
   629   599   604      1
   630   599   606      1
   631   599   607      1
   632   600   601      1
   633   600   608      1
   634   600   609      1
   635   601   602      1
   636   601   603      1
   637   601   610      1
   638   602   611      1
   639   602   612      1
   640   603   604      1
   641   603   613      1
   642   603   614      1
   643   604   605      1
   644   604   615      1
   645   605   616      1
   646   605   617      1
   647   605   621      1
   648   618   619      1
   649   618   623      1
   650   618   625      1
   651   618   626      1
   652   619   620      1
   653   619   627      1
   654   619   628      1
   655   620   621      1
   656   620   622      1
   657   620   629      1
   658   621   630      1
   659   621   631      1
   660   622   623      1
   661   622   632      1
   662   622   633      1
   663   623   624      1
   664   623   634      1
   665   624   635      1
   666   624   636      1
   667   624   640      1
   668   637   638      1
   669   637   642      1
   670   637   644      1
   671   637   645      1
   672   638   639      1
   673   638   646      1
   674   638   647      1
   675   639   640      1
   676   639   641      1
   677   639   648      1
   678   640   649      1
   679   640   650      1
   680   641   642      1
   681   641   651      1
   682   641   652      1
   683   642   643      1
   684   642   653      1
   685   643   654      1
   686   643   655      1
   687   643   659      1
   688   656   657      1
   689   656   661      1
   690   656   663      1
   691   656   664      1
   692   657   658      1
   693   657   665      1
   694   657   666      1
   695   658   659      1
   696   658   660      1
   697   658   667      1
   698   659   668      1
   699   659   669      1
   700   660   661      1
   701   660   670      1
   702   660   671      1
   703   661   662      1
   704   661   672      1
   705   662   673      1
   706   662   674      1
   707   662   675      1
   708   675   676      1
   709   675   677      1
   710   675   678      1
   711   676   679      1
   712   676   680      1
   713   676   684      1
   714   681   682      1
   715   681   686      1
   716   681   688      1
   717   681   689      1
   718   682   683      1
   719   682   690      1
   720   682   691      1
   721   683   684      1
   722   683   685      1
   723   683   692      1
   724   684   693      1
   725   684   694      1
   726   685   686      1
   727   685   695      1
   728   685   696      1
   729   686   687      1
   730   686   697      1
   731   687   698      1
   732   687   699      1
   733   687   703      1
   734   700   701      1
   735   700   705      1
   736   700   707      1
   737   700   708      1
   738   701   702      1
   739   701   709      1
   740   701   710      1
   741   702   703      1
   742   702   704      1
   743   702   711      1
   744   703   712      1
   745   703   713      1
   746   704   705      1
   747   704   714      1
   748   704   715      1
   749   705   706      1
   750   705   716      1
   751   706   717      1
   752   706   718      1
   753   706   722      1
   754   719   720      1
   755   719   724      1
   756   719   726      1
   757   719   727      1
   758   720   721      1
   759   720   728      1
   760   720   729      1
   761   721   722      1
   762   721   723      1
   763   721   730      1
   764   722   731      1
   765   722   732      1
   766   723   724      1
   767   723   733      1
   768   723   734      1
   769   724   725      1
   770   724   735      1
   771   725   736      1
   772   725   737      1
   773   725   741      1
   774   738   739      1
   775   738   743      1
   776   738   745      1
   777   738   746      1
   778   739   740      1
   779   739   747      1
   780   739   748      1
   781   740   741      1
   782   740   742      1
   783   740   749      1
   784   741   750      1
   785   741   751      1
   786   742   743      1
   787   742   752      1
   788   742   753      1
   789   743   744      1
   790   743   754      1
   791   744   755      1
   792   744   756      1
   793   744   760      1
   794   757   758      1
   795   757   762      1
   796   757   764      1
   797   757   765      1
   798   758   759      1
   799   758   766      1
   800   758   767      1
   801   759   760      1
   802   759   761      1
   803   759   768      1
   804   760   769      1
   805   760   770      1
   806   761   762      1
   807   761   771      1
   808   761   772      1
   809   762   763      1
   810   762   773      1
   811   763   774      1
   812   763   775      1
   813   763   779      1
   814   776   777      1
   815   776   781      1
   816   776   783      1
   817   776   784      1
   818   777   778      1
   819   777   785      1
   820   777   786      1
   821   778   779      1
   822   778   780      1
   823   778   787      1
   824   779   788      1
   825   779   789      1
   826   780   781      1
   827   780   790      1
   828   780   791      1
   829   781   782      1
   830   781   792      1
   831   782   793      1
   832   782   794      1
   833   782   795      1
   834   795   796      1
   835   795   797      1
   836   795   798      1
   837   796   799      1
   838   796   800      1
   839   796   804      1
   840   801   802      1
   841   801   806      1
   842   801   808      1
   843   801   809      1
   844   802   803      1
   845   802   810      1
   846   802   811      1
   847   803   804      1
   848   803   805      1
   849   803   812      1
   850   804   813      1
   851   804   814      1
   852   805   806      1
   853   805   815      1
   854   805   816      1
   855   806   807      1
   856   806   817      1
   857   807   818      1
   858   807   819      1
   859   807   823      1
   860   820   821      1
   861   820   825      1
   862   820   827      1
   863   820   828      1
   864   821   822      1
   865   821   829      1
   866   821   830      1
   867   822   823      1
   868   822   824      1
   869   822   831      1
   870   823   832      1
   871   823   833      1
   872   824   825      1
   873   824   834      1
   874   824   835      1
   875   825   826      1
   876   825   836      1
   877   826   837      1
   878   826   838      1
   879   826   839      1
   880   839   840      1
   881   839   841      1
   882   839   842      1
   883   840   843      1
   884   840   844      1
   885   840   848      1
   886   845   846      1
   887   845   850      1
   888   845   852      1
   889   845   853      1
   890   846   847      1
   891   846   854      1
   892   846   855      1
   893   847   848      1
   894   847   849      1
   895   847   856      1
   896   848   857      1
   897   848   858      1
   898   849   850      1
   899   849   859      1
   900   849   860      1
   901   850   851      1
   902   850   861      1
   903   851   862      1
   904   851   863      1
   905   851   867      1
   906   864   865      1
   907   864   869      1
   908   864   871      1
   909   864   872      1
   910   865   866      1
   911   865   873      1
   912   865   874      1
   913   866   867      1
   914   866   868      1
   915   866   875      1
   916   867   876      1
   917   867   877      1
   918   868   869      1
   919   868   878      1
   920   868   879      1
   921   869   870      1
   922   869   880      1
   923   870   881      1
   924   870   882      1
   925   870   883      1
   926   883   884      1
   927   883   885      1
   928   883   886      1
   929   884   887      1
   930   884   888      1
   931   884   892      1
   932   889   890      1
   933   889   894      1
   934   889   896      1
   935   889   897      1
   936   890   891      1
   937   890   898      1
   938   890   899      1
   939   891   892      1
   940   891   893      1
   941   891   900      1
   942   892   901      1
   943   892   902      1
   944   893   894      1
   945   893   903      1
   946   893   904      1
   947   894   895      1
   948   894   905      1
   949   895   906      1
   950   895   907      1
   951   895   908      1
   952   908   909      1
   953   908   910      1
   954   908   911      1
   955   909   912      1
   956   909   913      1
   957   909   917      1
   958   914   915      1
   959   914   919      1
   960   914   921      1
   961   914   922      1
   962   915   916      1
   963   915   923      1
   964   915   924      1
   965   916   917      1
   966   916   918      1
   967   916   925      1
   968   917   926      1
   969   917   927      1
   970   918   919      1
   971   918   928      1
   972   918   929      1
   973   919   920      1
   974   919   930      1
   975   920   931      1
   976   920   932      1
   977   920   936      1
   978   933   934      1
   979   933   938      1
   980   933   940      1
   981   933   941      1
   982   934   935      1
   983   934   942      1
   984   934   943      1
   985   935   936      1
   986   935   937      1
   987   935   944      1
   988   936   945      1
   989   936   946      1
   990   937   938      1
   991   937   947      1
   992   937   948      1
   993   938   939      1
   994   938   949      1
   995   939   950      1
   996   939   951      1
   997   939   955      1
   998   952   953      1
   999   952   957      1
  1000   952   959      1
  1001   952   960      1
  1002   953   954      1
  1003   953   961      1
  1004   953   962      1
  1005   954   955      1
  1006   954   956      1
  1007   954   963      1
  1008   955   964      1
  1009   955   965      1
  1010   956   957      1
  1011   956   966      1
  1012   956   967      1
  1013   957   958      1
  1014   957   968      1
  1015   958   969      1
  1016   958   970      1
  1017   958   971      1
  1018   971   972      1
  1019   971   973      1
  1020   971   974      1
  1021   972   975      1
  1022   972   976      1
  1023   972   980      1
  1024   977   978      1
  1025   977   982      1
  1026   977   984      1
  1027   977   985      1
  1028   978   979      1
  1029   978   986      1
  1030   978   987      1
  1031   979   980      1
  1032   979   981      1
  1033   979   988      1
  1034   980   989      1
  1035   980   990      1
  1036   981   982      1
  1037   981   991      1
  1038   981   992      1
  1039   982   983      1
  1040   982   993      1
  1041   983   994      1
  1042   983   995      1
  1043   983   999      1
  1044   996   997      1
  1045   996  1001      1
  1046   996  1003      1
  1047   996  1004      1
  1048   997   998      1
  1049   997  1005      1
  1050   997  1006      1
  1051   998   999      1
  1052   998  1000      1
  1053   998  1007      1
  1054   999  1008      1
  1055   999  1009      1
  1056  1000  1001      1
  1057  1000  1010      1
  1058  1000  1011      1
  1059  1001  1002      1
  1060  1001  1012      1
  1061  1002  1013      1
  1062  1002  1014      1
  1063  1002  1015      1
  1064  1015  1016      1
  1065  1015  1017      1
  1066  1015  1018      1
  1067  1016  1019      1
  1068  1016  1020      1
  1069  1016  1024      1
  1070  1021  1022      1
  1071  1021  1026      1
  1072  1021  1028      1
  1073  1021  1029      1
  1074  1022  1023      1
  1075  1022  1030      1
  1076  1022  1031      1
  1077  1023  1024      1
  1078  1023  1025      1
  1079  1023  1032      1
  1080  1024  1033      1
  1081  1024  1034      1
  1082  1025  1026      1
  1083  1025  1035      1
  1084  1025  1036      1
  1085  1026  1027      1
  1086  1026  1037      1
  1087  1027  1038      1
  1088  1027  1039      1
  1089  1027  1043      1
  1090  1040  1041      1
  1091  1040  1045      1
  1092  1040  1047      1
  1093  1040  1048      1
  1094  1041  1042      1
  1095  1041  1049      1
  1096  1041  1050      1
  1097  1042  1043      1
  1098  1042  1044      1
  1099  1042  1051      1
  1100  1043  1052      1
  1101  1043  1053      1
  1102  1044  1045      1
  1103  1044  1054      1
  1104  1044  1055      1
  1105  1045  1046      1
  1106  1045  1056      1
  1107  1046  1057      1
  1108  1046  1058      1
  1109  1046  1059      1
  1110  1059  1060      1
  1111  1059  1061      1
  1112  1059  1062      1
  1113  1060  1063      1
  1114  1060  1064      1
  1115  1060  1068      1
  1116  1065  1066      1
  1117  1065  1070      1
  1118  1065  1072      1
  1119  1065  1073      1
  1120  1066  1067      1
  1121  1066  1074      1
  1122  1066  1075      1
  1123  1067  1068      1
  1124  1067  1069      1
  1125  1067  1076      1
  1126  1068  1077      1
  1127  1068  1078      1
  1128  1069  1070      1
  1129  1069  1079      1
  1130  1069  1080      1
  1131  1070  1071      1
  1132  1070  1081      1
  1133  1071  1082      1
  1134  1071  1083      1
  1135  1071  1084      H
