###
### Created by PolyChef-cpp17 on Wed Feb 26 21:14:12 2025
###

@<TRIPOS>MOLECULE
NO_INFO
1217 1273 1 0 0
SMALL
USER_CHARGES


@<TRIPOS>ATOM
      1 C         170.7742  123.0257   56.7874 C.3       0        0    0.0000
      2 C         170.1677  122.3561   55.5622 C.3       0        0    0.0000
      3 C         169.2221  123.4318   55.0178 C.3       0        0    0.0000
      4 C         168.1666  122.9375   54.0239 C.3       0        0    0.0000
      5 C         168.6747  124.1583   56.2620 C.3       0        0    0.0000
      6 C         169.5662  123.7093   57.4363 C.3       0        0    0.0000
      7 C         169.8989  124.7943   58.4651 C.3       0        0    0.0000
      8 H         171.2458  122.3008   57.4581 H         0        0    0.0000
      9 H         171.5374  123.7470   56.4752 H         0        0    0.0000
     10 H         170.9313  122.0719   54.8316 H         0        0    0.0000
     11 H         169.6310  121.4498   55.8635 H         0        0    0.0000
     12 H         169.8451  124.1594   54.4758 H         0        0    0.0000
     13 H         167.4214  122.3390   54.5613 H         0        0    0.0000
     14 H         167.6354  123.8010   53.6062 H         0        0    0.0000
     15 H         167.6308  123.9058   56.4775 H         0        0    0.0000
     16 H         168.7026  125.2406   56.0958 H         0        0    0.0000
     17 H         169.0090  122.9281   57.9752 H         0        0    0.0000
     18 H         170.8091  125.3186   58.1509 H         0        0    0.0000
     19 H         169.0938  125.5386   58.4742 H         0        0    0.0000
     20 C         167.6074  125.5038   62.3635 C.3       1        0    0.0000
     21 C         168.1075  125.5515   60.9176 C.3       1        0    0.0000
     22 C         169.6196  125.2679   60.9653 C.3       1        0    0.0000
     23 C         170.1037  124.2609   59.9148 C.3       1        0    0.0000
     24 C         169.8726  124.7846   62.3970 C.3       1        0    0.0000
     25 C         168.8573  125.5539   63.2489 C.3       1        0    0.0000
     26 C         169.3205  126.9895   63.5616 C.3       1        0    0.0000
     27 H         166.8865  126.3001   62.5716 H         1        0    0.0000
     28 H         167.0891  124.5502   62.5266 H         1        0    0.0000
     29 H         167.5577  124.8271   60.3067 H         1        0    0.0000
     30 H         167.9283  126.5425   60.4845 H         1        0    0.0000
     31 H         170.1534  126.2190   60.8269 H         1        0    0.0000
     32 H         171.1718  124.0640   60.0655 H         1        0    0.0000
     33 H         169.5842  123.3031   60.0346 H         1        0    0.0000
     34 H         170.9074  124.9558   62.7108 H         1        0    0.0000
     35 H         169.6758  123.7077   62.4770 H         1        0    0.0000
     36 H         168.6811  125.0143   64.1881 H         1        0    0.0000
     37 H         168.7429  127.4208   64.3866 H         1        0    0.0000
     38 H         169.1489  127.6261   62.6855 H         1        0    0.0000
     39 C         170.8362  127.0441   63.9104 C.3       2        0    0.0000
     40 C         171.1267  127.3980   65.3760 C.3       2        0    0.0000
     41 H         171.2426  126.0436   63.7147 H         2        0    0.0000
     42 H         171.3484  127.7299   63.2254 H         2        0    0.0000
     43 H         171.2330  128.4807   65.5114 H         2        0    0.0000
     44 H         170.2625  127.0899   65.9783 H         2        0    0.0000
     45 C         172.3042  122.9696   65.6442 C.3       3        0    0.0000
     46 C         171.5652  124.2864   65.3932 C.3       3        0    0.0000
     47 C         172.0255  125.2650   66.4885 C.3       3        0    0.0000
     48 C         172.3783  126.6654   65.9722 C.3       3        0    0.0000
     49 C         173.2205  124.5675   67.1463 C.3       3        0    0.0000
     50 C         172.8930  123.0733   67.0553 C.3       3        0    0.0000
     51 C         171.9143  122.6183   68.1546 C.3       3        0    0.0000
     52 H         171.6521  122.1028   65.5003 H         3        0    0.0000
     53 H         173.1228  122.8802   64.9186 H         3        0    0.0000
     54 H         171.7784  124.6489   64.3816 H         3        0    0.0000
     55 H         170.4816  124.1347   65.4612 H         3        0    0.0000
     56 H         171.2241  125.3471   67.2366 H         3        0    0.0000
     57 H         172.7734  127.2682   66.7986 H         3        0    0.0000
     58 H         173.1691  126.6066   65.2155 H         3        0    0.0000
     59 H         173.3776  124.9065   68.1754 H         3        0    0.0000
     60 H         174.1405  124.7752   66.5848 H         3        0    0.0000
     61 H         173.8190  122.4887   67.1260 H         3        0    0.0000
     62 H         171.3629  121.7227   67.8476 H         3        0    0.0000
     63 H         171.1715  123.4057   68.3291 H         3        0    0.0000
     64 C         172.6461  122.3366   69.4989 C.3       4        0    0.0000
     65 C         172.1319  121.0947   70.2409 C.3       4        0    0.0000
     66 H         173.7040  122.1742   69.2557 H         4        0    0.0000
     67 H         172.6043  123.2278   70.1361 H         4        0    0.0000
     68 H         171.3120  121.3486   70.9230 H         4        0    0.0000
     69 H         171.7182  120.4011   69.4977 H         4        0    0.0000
     70 C         174.9589  120.4628   73.8164 C.3       5        0    0.0000
     71 C         174.1231  121.5115   73.0777 C.3       5        0    0.0000
     72 C         174.3256  121.2559   71.5802 C.3       5        0    0.0000
     73 C         173.2446  120.3120   71.0205 C.3       5        0    0.0000
     74 C         175.7491  120.6854   71.5413 C.3       5        0    0.0000
     75 C         175.8191  119.7561   72.7557 C.3       5        0    0.0000
     76 C         177.2614  119.4748   73.1921 C.3       5        0    0.0000
     77 H         175.5641  120.9497   74.5896 H         5        0    0.0000
     78 H         174.3097  119.7382   74.3211 H         5        0    0.0000
     79 H         174.5047  122.5091   73.3296 H         5        0    0.0000
     80 H         173.0718  121.4849   73.3820 H         5        0    0.0000
     81 H         174.2869  122.2061   71.0321 H         5        0    0.0000
     82 H         172.7699  119.7754   71.8508 H         5        0    0.0000
     83 H         173.6822  119.5506   70.3661 H         5        0    0.0000
     84 H         176.4719  121.5050   71.6473 H         5        0    0.0000
     85 H         175.9847  120.1594   70.6114 H         5        0    0.0000
     86 H         175.3335  118.8057   72.4934 H         5        0    0.0000
     87 H         177.8316  120.4092   73.2493 H         5        0    0.0000
     88 H         177.7536  118.8474   72.4397 H         5        0    0.0000
     89 C         180.1834  120.0055   76.6708 C.3       6        0    0.0000
     90 C         179.2448  120.1446   75.4693 C.3       6        0    0.0000
     91 C         178.7296  118.7329   75.1597 C.3       6        0    0.0000
     92 C         177.3185  118.7457   74.5652 C.3       6        0    0.0000
     93 C         178.8477  118.0154   76.5085 C.3       6        0    0.0000
     94 C         180.1962  118.5156   77.0371 C.3       6        0    0.0000
     95 C         180.4194  118.2863   78.5345 C.3       6        0    0.0000
     96 H         181.1921  120.3604   76.4338 H         6        0    0.0000
     97 H         179.8094  120.6192   77.4991 H         6        0    0.0000
     98 H         179.7629  120.5721   74.6041 H         6        0    0.0000
     99 H         178.4233  120.8246   75.7247 H         6        0    0.0000
    100 H         179.4254  118.2622   74.4500 H         6        0    0.0000
    101 H         176.6382  119.2543   75.2587 H         6        0    0.0000
    102 H         176.9450  117.7214   74.4503 H         6        0    0.0000
    103 H         178.8310  116.9268   76.3955 H         6        0    0.0000
    104 H         178.0303  118.3053   77.1806 H         6        0    0.0000
    105 H         180.9995  118.0290   76.4648 H         6        0    0.0000
    106 H         179.5266  118.5761   79.1008 H         6        0    0.0000
    107 H         181.2365  118.9300   78.8814 H         6        0    0.0000
    108 C         180.7811  116.8109   78.8589 C.3       7        0    0.0000
    109 C         180.6255  116.4418   80.3411 C.3       7        0    0.0000
    110 H         180.0953  116.1814   78.2775 H         7        0    0.0000
    111 H         181.7921  116.5902   78.4968 H         7        0    0.0000
    112 H         181.5466  116.6423   80.9009 H         7        0    0.0000
    113 H         179.8493  117.0867   80.7729 H         7        0    0.0000
    114 C         180.1708  114.9611   80.5847 C.3       8        0    0.0000
    115 C         179.9998  114.5967   82.0664 C.3       8        0    0.0000
    116 H         180.9527  114.3162   80.1635 H         8        0    0.0000
    117 H         179.2562  114.7571   80.0156 H         8        0    0.0000
    118 H         178.9396  114.3732   82.2418 H         8        0    0.0000
    119 H         180.5578  113.6880   82.3206 H         8        0    0.0000
    120 C         180.3889  115.7498   83.0550 C.3       9        0    0.0000
    121 C         180.2213  115.3842   84.5368 C.3       9        0    0.0000
    122 H         181.4483  115.9752   82.8777 H         9        0    0.0000
    123 H         179.8288  116.6578   82.8024 H         9        0    0.0000
    124 H         181.1546  115.5331   85.0924 H         9        0    0.0000
    125 H         179.4829  116.0679   84.9748 H         9        0    0.0000
    126 C         179.6894  113.9290   84.7777 C.3      10        0    0.0000
    127 C         178.1591  113.8099   84.7403 C.3      10        0    0.0000
    128 H         180.0299  113.6286   85.7769 H        10        0    0.0000
    129 H         180.1606  113.2409   84.0661 H        10        0    0.0000
    130 H         177.7701  114.6191   84.1090 H        10        0    0.0000
    131 H         177.8436  112.8692   84.2738 H        10        0    0.0000
    132 C         180.1795  115.6866   88.1780 C.3      11        0    0.0000
    133 C         179.7044  115.0519   86.8785 C.3      11        0    0.0000
    134 C         178.1933  114.9202   87.0950 C.3      11        0    0.0000
    135 C         177.4739  113.9603   86.1425 C.3      11        0    0.0000
    136 C         178.0234  114.6177   88.5967 C.3      11        0    0.0000
    137 C         179.3904  114.9173   89.2425 C.3      11        0    0.0000
    138 C         179.3376  115.5749   90.6249 C.3      11        0    0.0000
    139 H         181.2606  115.5826   88.3124 H        11        0    0.0000
    140 H         179.9379  116.7552   88.1779 H        11        0    0.0000
    141 H         179.9427  115.6728   86.0093 H        11        0    0.0000
    142 H         180.1879  114.0781   86.7439 H        11        0    0.0000
    143 H         177.7583  115.9162   86.9222 H        11        0    0.0000
    144 H         177.4104  112.9712   86.6115 H        11        0    0.0000
    145 H         176.4437  114.3060   85.9958 H        11        0    0.0000
    146 H         177.7465  113.5762   88.7925 H        11        0    0.0000
    147 H         177.2153  115.2341   89.0051 H        11        0    0.0000
    148 H         179.8956  113.9489   89.3763 H        11        0    0.0000
    149 H         180.2224  115.2741   91.1984 H        11        0    0.0000
    150 H         179.3941  116.6635   90.5064 H        11        0    0.0000
    151 C         178.9566  112.1710   93.4742 C.3      12        0    0.0000
    152 C         179.3301  113.2695   92.4755 C.3      12        0    0.0000
    153 C         178.0135  113.7495   91.8508 C.3      12        0    0.0000
    154 C         178.0633  115.2269   91.4514 C.3      12        0    0.0000
    155 C         176.9749  113.4134   92.9261 C.3      12        0    0.0000
    156 C         177.4297  112.0329   93.4113 C.3      12        0    0.0000
    157 C         176.8290  111.5975   94.7507 C.3      12        0    0.0000
    158 H         179.4471  111.2230   93.2284 H        12        0    0.0000
    159 H         179.2923  112.4601   94.4773 H        12        0    0.0000
    160 H         180.0160  112.8959   91.7076 H        12        0    0.0000
    161 H         179.8441  114.0824   93.0023 H        12        0    0.0000
    162 H         177.8110  113.1332   90.9627 H        12        0    0.0000
    163 H         178.0542  115.8468   92.3559 H        12        0    0.0000
    164 H         177.1701  115.4953   90.8753 H        12        0    0.0000
    165 H         175.9587  113.3898   92.5200 H        12        0    0.0000
    166 H         177.0035  114.1459   93.7426 H        12        0    0.0000
    167 H         177.1844  111.2908   92.6375 H        12        0    0.0000
    168 H         177.3068  110.6746   95.0997 H        12        0    0.0000
    169 H         175.7651  111.3703   94.6135 H        12        0    0.0000
    170 C         176.9631  112.6940   95.8428 C.3      13        0    0.0000
    171 C         176.5947  112.2166   97.2548 C.3      13        0    0.0000
    172 H         178.0157  113.0047   95.8523 H        13        0    0.0000
    173 H         176.3787  113.5758   95.5548 H        13        0    0.0000
    174 H         176.7698  113.0017   97.9997 H        13        0    0.0000
    175 H         175.5184  112.0024   97.2718 H        13        0    0.0000
    176 C         178.0199  111.1879  101.2857 C.3      14        0    0.0000
    177 C         177.1865  111.7015  100.1126 C.3      14        0    0.0000
    178 C         177.0102  110.5182   99.1453 C.3      14        0    0.0000
    179 C         177.3251  110.9001   97.6930 C.3      14        0    0.0000
    180 C         177.9137  109.4121   99.7118 C.3      14        0    0.0000
    181 C         177.9389  109.6604  101.2254 C.3      14        0    0.0000
    182 C         176.7043  109.1245  101.9730 C.3      14        0    0.0000
    183 H         179.0625  111.5002  101.1439 H        14        0    0.0000
    184 H         177.6852  111.6033  102.2414 H        14        0    0.0000
    185 H         177.6745  112.5644   99.6463 H        14        0    0.0000
    186 H         176.2042  112.0383  100.4644 H        14        0    0.0000
    187 H         175.9651  110.1838   99.2089 H        14        0    0.0000
    188 H         177.0505  110.0828   97.0161 H        14        0    0.0000
    189 H         178.4059  111.0511   97.5846 H        14        0    0.0000
    190 H         177.5550  108.4129   99.4462 H        14        0    0.0000
    191 H         178.9324  109.5117   99.3148 H        14        0    0.0000
    192 H         178.8451  109.2246  101.6651 H        14        0    0.0000
    193 H         176.3882  108.1545  101.5743 H        14        0    0.0000
    194 H         175.8643  109.8135  101.8229 H        14        0    0.0000
    195 C         176.9562  109.0000  103.5023 C.3      15        0    0.0000
    196 C         175.6761  109.0268  104.3497 C.3      15        0    0.0000
    197 H         177.4516  108.0341  103.6643 H        15        0    0.0000
    198 H         177.6639  109.7730  103.8243 H        15        0    0.0000
    199 H         174.9151  109.6768  103.9023 H        15        0    0.0000
    200 H         175.2550  108.0133  104.3623 H        15        0    0.0000
    201 C         173.0131  110.7094  107.7060 C.3      16        0    0.0000
    202 C         173.5159  110.1450  106.3782 C.3      16        0    0.0000
    203 C         174.6720  109.1876  106.7155 C.3      16        0    0.0000
    204 C         175.9100  109.4384  105.8445 C.3      16        0    0.0000
    205 C         174.9150  109.3828  108.2200 C.3      16        0    0.0000
    206 C         173.5466  109.7728  108.7930 C.3      16        0    0.0000
    207 C         172.6012  108.5818  109.0342 C.3      16        0    0.0000
    208 H         173.4397  111.7103  107.8503 H        16        0    0.0000
    209 H         171.9240  110.8171  107.7214 H        16        0    0.0000
    210 H         173.8167  110.9571  105.7073 H        16        0    0.0000
    211 H         172.7150  109.5911  105.8743 H        16        0    0.0000
    212 H         174.3186  108.1603  106.5480 H        16        0    0.0000
    213 H         176.7742  108.8962  106.2457 H        16        0    0.0000
    214 H         176.1638  110.5048  105.8745 H        16        0    0.0000
    215 H         175.3371  108.4876  108.6871 H        16        0    0.0000
    216 H         175.6222  110.2055  108.3880 H        16        0    0.0000
    217 H         173.6736  110.3291  109.7304 H        16        0    0.0000
    218 H         172.0452  108.3253  108.1260 H        16        0    0.0000
    219 H         171.8560  108.8598  109.7895 H        16        0    0.0000
    220 C         176.6433  109.1025  108.9928 C.3      17        0    0.0000
    221 C         175.4946  108.2263  108.4865 C.3      17        0    0.0000
    222 C         174.8601  107.5877  109.7291 C.3      17        0    0.0000
    223 C         173.3620  107.3272  109.5490 C.3      17        0    0.0000
    224 C         175.2063  108.5788  110.8452 C.3      17        0    0.0000
    225 C         176.6552  108.9568  110.5202 C.3      17        0    0.0000
    226 C         177.1573  110.2218  111.2217 C.3      17        0    0.0000
    227 H         177.6018  108.7944  108.5614 H        17        0    0.0000
    228 H         176.4701  110.1422  108.6903 H        17        0    0.0000
    229 H         175.8524  107.4600  107.7905 H        17        0    0.0000
    230 H         174.7736  108.8481  107.9425 H        17        0    0.0000
    231 H         175.3788  106.6388  109.9293 H        17        0    0.0000
    232 H         172.9287  107.0267  110.5105 H        17        0    0.0000
    233 H         173.2017  106.4932  108.8557 H        17        0    0.0000
    234 H         175.1145  108.1257  111.8374 H        17        0    0.0000
    235 H         174.5523  109.4589  110.8058 H        17        0    0.0000
    236 H         177.3054  108.1082  110.7784 H        17        0    0.0000
    237 H         176.8306  110.2316  112.2681 H        17        0    0.0000
    238 H         176.7116  111.1021  110.7432 H        17        0    0.0000
    239 C         181.5737  109.1177  109.1617 C.3      18        0    0.0000
    240 C         180.4843  110.1836  109.3027 C.3      18        0    0.0000
    241 C         179.3047  109.5137  110.0301 C.3      18        0    0.0000
    242 C         178.7036  110.3567  111.1616 C.3      18        0    0.0000
    243 C         179.8723  108.1824  110.5327 C.3      18        0    0.0000
    244 C         180.9005  107.7762  109.4715 C.3      18        0    0.0000
    245 C         180.2459  107.1280  108.2369 C.3      18        0    0.0000
    246 H         182.0546  109.1541  108.1796 H        18        0    0.0000
    247 H         182.3543  109.3094  109.9091 H        18        0    0.0000
    248 H         180.8779  111.0529  109.8409 H        18        0    0.0000
    249 H         180.1622  110.5329  108.3148 H        18        0    0.0000
    250 H         178.5229  109.2935  109.2892 H        18        0    0.0000
    251 H         179.1193  110.0261  112.1209 H        18        0    0.0000
    252 H         178.9797  111.4107  111.0420 H        18        0    0.0000
    253 H         179.0892  107.4307  110.6757 H        18        0    0.0000
    254 H         180.3776  108.3223  111.4971 H        18        0    0.0000
    255 H         181.6251  107.0781  109.9095 H        18        0    0.0000
    256 H         180.7107  107.4827  107.3103 H        18        0    0.0000
    257 H         179.1885  107.4148  108.1929 H        18        0    0.0000
    258 C         179.8650  102.8094  110.7223 C.3      19        0    0.0000
    259 C         179.1834  103.7992  109.7743 C.3      19        0    0.0000
    260 C         180.0898  105.0415  109.7090 C.3      19        0    0.0000
    261 C         180.3243  105.5746  108.2902 C.3      19        0    0.0000
    262 C         181.3902  104.6017  110.3894 C.3      19        0    0.0000
    263 C         180.9450  103.6043  111.4643 C.3      19        0    0.0000
    264 C         180.4187  104.3031  112.7323 C.3      19        0    0.0000
    265 H         179.1455  102.3179  111.3841 H        19        0    0.0000
    266 H         180.3437  102.0219  110.1262 H        19        0    0.0000
    267 H         179.0282  103.3337  108.7947 H        19        0    0.0000
    268 H         178.1961  104.0788  110.1600 H        19        0    0.0000
    269 H         179.6349  105.8329  110.3217 H        19        0    0.0000
    270 H         181.3179  105.2643  107.9453 H        19        0    0.0000
    271 H         179.5969  105.1423  107.5936 H        19        0    0.0000
    272 H         181.9452  105.4509  110.8010 H        19        0    0.0000
    273 H         182.0457  104.0950  109.6692 H        19        0    0.0000
    274 H         181.7851  102.9501  111.7298 H        19        0    0.0000
    275 H         179.9312  103.5884  113.4045 H        19        0    0.0000
    276 H         179.6609  105.0442  112.4514 H        19        0    0.0000
    277 C         181.5548  105.0393  113.4998 C.3      20        0    0.0000
    278 C         181.5941  104.7301  115.0032 C.3      20        0    0.0000
    279 H         182.5029  104.7057  113.0587 H        20        0    0.0000
    280 H         181.4861  106.1179  113.3160 H        20        0    0.0000
    281 H         180.9843  105.4412  115.5727 H        20        0    0.0000
    282 H         181.1482  103.7394  115.1587 H        20        0    0.0000
    283 C         184.6837  101.3924  115.6465 C.3      21        0    0.0000
    284 C         183.4422  102.1813  115.2331 C.3      21        0    0.0000
    285 C         183.9127  103.6126  114.9215 C.3      21        0    0.0000
    286 C         183.0411  104.6747  115.6046 C.3      21        0    0.0000
    287 C         185.3875  103.6418  115.3515 C.3      21        0    0.0000
    288 C         185.8843  102.2041  115.1533 C.3      21        0    0.0000
    289 C         186.2482  101.8576  113.6980 C.3      21        0    0.0000
    290 H         184.7157  101.3295  116.7418 H        21        0    0.0000
    291 H         184.6660  100.3670  115.2643 H        21        0    0.0000
    292 H         182.6851  102.1439  116.0240 H        21        0    0.0000
    293 H         182.9932  101.7384  114.3363 H        21        0    0.0000
    294 H         183.8622  103.7544  113.8327 H        21        0    0.0000
    295 H         183.5116  105.6616  115.5259 H        21        0    0.0000
    296 H         182.9631  104.4457  116.6743 H        21        0    0.0000
    297 H         185.9656  104.3782  114.7849 H        21        0    0.0000
    298 H         185.4693  103.9066  116.4138 H        21        0    0.0000
    299 H         186.7510  102.0112  115.7984 H        21        0    0.0000
    300 H         185.3737  101.4997  113.1441 H        21        0    0.0000
    301 H         186.9782  101.0390  113.6937 H        21        0    0.0000
    302 C         188.5914  106.1631  113.9233 C.3      22        0    0.0000
    303 C         187.4862  105.5427  113.0699 C.3      22        0    0.0000
    304 C         186.9727  104.3133  113.8391 C.3      22        0    0.0000
    305 C         186.8777  103.0666  112.9497 C.3      22        0    0.0000
    306 C         187.9369  104.1637  115.0259 C.3      22        0    0.0000
    307 C         188.4103  105.5905  115.3314 C.3      22        0    0.0000
    308 C         187.4146  106.4212  116.1615 C.3      22        0    0.0000
    309 H         189.5650  105.8472  113.5273 H        22        0    0.0000
    310 H         188.5697  107.2570  113.8930 H        22        0    0.0000
    311 H         187.8674  105.2937  112.0735 H        22        0    0.0000
    312 H         186.6673  106.2585  112.9317 H        22        0    0.0000
    313 H         185.9728  104.5526  114.2280 H        22        0    0.0000
    314 H         187.8694  102.7914  112.5724 H        22        0    0.0000
    315 H         186.2575  103.2930  112.0741 H        22        0    0.0000
    316 H         187.4611  103.6762  115.8824 H        22        0    0.0000
    317 H         188.8023  103.5522  114.7388 H        22        0    0.0000
    318 H         189.3785  105.5653  115.8475 H        22        0    0.0000
    319 H         186.6109  106.8213  115.5341 H        22        0    0.0000
    320 H         187.9359  107.2850  116.5914 H        22        0    0.0000
    321 C         184.4640  107.4298  119.5579 C.3      23        0    0.0000
    322 C         185.3673  107.5006  118.3243 C.3      23        0    0.0000
    323 C         186.4989  106.4815  118.5484 C.3      23        0    0.0000
    324 C         186.8009  105.5997  117.3304 C.3      23        0    0.0000
    325 C         186.0424  105.6645  119.7614 C.3      23        0    0.0000
    326 C         185.2534  106.6580  120.6209 C.3      23        0    0.0000
    327 C         186.1710  107.5604  121.4676 C.3      23        0    0.0000
    328 H         184.1400  108.4231  119.8830 H        23        0    0.0000
    329 H         183.5590  106.8645  119.3010 H        23        0    0.0000
    330 H         184.7835  107.2964  117.4200 H        23        0    0.0000
    331 H         185.7888  108.5070  118.2173 H        23        0    0.0000
    332 H         187.4079  107.0319  118.8301 H        23        0    0.0000
    333 H         187.5129  104.8165  117.6167 H        23        0    0.0000
    334 H         185.8908  105.0926  116.9897 H        23        0    0.0000
    335 H         186.8868  105.2170  120.2956 H        23        0    0.0000
    336 H         185.3803  104.8482  119.4449 H        23        0    0.0000
    337 H         184.5691  106.1106  121.2814 H        23        0    0.0000
    338 H         185.6283  108.4346  121.8440 H        23        0    0.0000
    339 H         186.9882  107.9380  120.8416 H        23        0    0.0000
    340 C         185.4078  103.3189  121.9674 C.3      24        0    0.0000
    341 C         185.6454  104.7596  121.5368 C.3      24        0    0.0000
    342 C         186.6519  105.2651  122.5756 C.3      24        0    0.0000
    343 C         186.7957  106.7874  122.6651 C.3      24        0    0.0000
    344 C         186.2701  104.5554  123.8893 C.3      24        0    0.0000
    345 C         185.2928  103.4322  123.4910 C.3      24        0    0.0000
    346 C         185.4483  102.1175  124.2616 C.3      24        0    0.0000
    347 H         184.5021  102.9016  121.5165 H        24        0    0.0000
    348 H         186.2569  102.6970  121.6632 H        24        0    0.0000
    349 H         186.0396  104.8220  120.5178 H        24        0    0.0000
    350 H         184.7025  105.3164  121.5715 H        24        0    0.0000
    351 H         187.6377  104.8749  122.2806 H        24        0    0.0000
    352 H         186.3277  107.1374  123.5929 H        24        0    0.0000
    353 H         187.8597  107.0435  122.7329 H        24        0    0.0000
    354 H         185.7857  105.2239  124.6092 H        24        0    0.0000
    355 H         187.1751  104.1788  124.3783 H        24        0    0.0000
    356 H         184.2797  103.8033  123.7077 H        24        0    0.0000
    357 H         184.7105  102.0882  125.0722 H        24        0    0.0000
    358 H         185.2151  101.2804  123.5930 H        24        0    0.0000
    359 C         189.4000  102.1854  122.0865 C.3      25        0    0.0000
    360 C         188.0924  102.5850  122.7530 C.3      25        0    0.0000
    361 C         187.9003  101.4963  123.8108 C.3      25        0    0.0000
    362 C         186.8666  101.8942  124.8673 C.3      25        0    0.0000
    363 C         189.3208  101.2612  124.3563 C.3      25        0    0.0000
    364 C         190.2877  101.7621  123.2638 C.3      25        0    0.0000
    365 C         191.4333  100.8054  122.9096 C.3      25        0    0.0000
    366 H         189.8392  103.0125  121.5200 H        25        0    0.0000
    367 H         189.2182  101.3608  121.3888 H        25        0    0.0000
    368 H         188.1892  103.5744  123.2163 H        25        0    0.0000
    369 H         187.2632  102.6201  122.0399 H        25        0    0.0000
    370 H         187.5712  100.5777  123.3036 H        25        0    0.0000
    371 H         186.8090  101.1265  125.6481 H        25        0    0.0000
    372 H         187.1890  102.8196  125.3591 H        25        0    0.0000
    373 H         189.4928  101.8349  125.2755 H        25        0    0.0000
    374 H         189.4680  100.2059  124.6092 H        25        0    0.0000
    375 H         190.7579  102.6761  123.6563 H        25        0    0.0000
    376 H         191.8636  101.1030  121.9461 H        25        0    0.0000
    377 H         191.0251   99.7969  122.7732 H        25        0    0.0000
    378 C         195.6496  100.8367  121.9022 C.3      26        0    0.0000
    379 C         194.1569  100.5017  121.9508 C.3      26        0    0.0000
    380 C         193.8425  100.1023  123.4037 C.3      26        0    0.0000
    381 C         192.5696  100.7433  123.9704 C.3      26        0    0.0000
    382 C         195.0960  100.5011  124.1892 C.3      26        0    0.0000
    383 C         196.2509  100.2945  123.2034 C.3      26        0    0.0000
    384 C         196.6806   98.8185  123.1029 C.3      26        0    0.0000
    385 H         196.1259  100.4446  120.9986 H        26        0    0.0000
    386 H         195.7661  101.9279  121.8795 H        26        0    0.0000
    387 H         193.5687  101.3604  121.6087 H        26        0    0.0000
    388 H         193.9313   99.6661  121.2781 H        26        0    0.0000
    389 H         193.7461   99.0080  123.4474 H        26        0    0.0000
    390 H         192.2160  100.1543  124.8251 H        26        0    0.0000
    391 H         192.7827  101.7510  124.3454 H        26        0    0.0000
    392 H         195.2094   99.9138  125.1062 H        26        0    0.0000
    393 H         195.0458  101.5591  124.4773 H        26        0    0.0000
    394 H         197.1099  100.9048  123.5099 H        26        0    0.0000
    395 H         196.0277   98.2618  122.4215 H        26        0    0.0000
    396 H         196.5906   98.3454  124.0879 H        26        0    0.0000
    397 C         198.1569   98.6776  122.6311 C.3      27        0    0.0000
    398 C         198.7377   97.2678  122.8116 C.3      27        0    0.0000
    399 H         198.1715   98.9172  121.5601 H        27        0    0.0000
    400 H         198.7776   99.4315  123.1294 H        27        0    0.0000
    401 H         198.6012   96.9087  123.8384 H        27        0    0.0000
    402 H         198.1770   96.5829  122.1627 H        27        0    0.0000
    403 C         202.0090  100.4810  122.0763 C.3      28        0    0.0000
    404 C         200.9076   99.6326  122.6933 C.3      28        0    0.0000
    405 C         200.8383   98.4090  121.7708 C.3      28        0    0.0000
    406 C         200.2468   97.1435  122.4045 C.3      28        0    0.0000
    407 C         202.2540   98.2528  121.1782 C.3      28        0    0.0000
    408 C         203.0725   99.4453  121.7058 C.3      28        0    0.0000
    409 C         204.1015  100.0023  120.7188 C.3      28        0    0.0000
    410 H         201.6347  101.0000  121.1855 H        28        0    0.0000
    411 H         202.3885  101.2317  122.7762 H        28        0    0.0000
    412 H         201.1843   99.3623  123.7181 H        28        0    0.0000
    413 H         199.9539  100.1681  122.7343 H        28        0    0.0000
    414 H         200.1756   98.6748  120.9338 H        28        0    0.0000
    415 H         200.3525   96.3100  121.6998 H        28        0    0.0000
    416 H         200.8331   96.8800  123.2927 H        28        0    0.0000
    417 H         202.1864   98.2713  120.0833 H        28        0    0.0000
    418 H         202.7314   97.3055  121.4502 H        28        0    0.0000
    419 H         203.5823   99.1302  122.6280 H        28        0    0.0000
    420 H         203.6475  100.7864  120.1015 H        28        0    0.0000
    421 H         204.9193  100.4745  121.2760 H        28        0    0.0000
    422 C         204.0989   95.5372  121.4546 C.3      29        0    0.0000
    423 C         204.2539   97.0488  121.5475 C.3      29        0    0.0000
    424 C         204.1796   97.4906  120.0822 C.3      29        0    0.0000
    425 C         204.6968   98.9033  119.7945 C.3      29        0    0.0000
    426 C         204.8558   96.3597  119.2827 C.3      29        0    0.0000
    427 C         204.9877   95.1754  120.2601 C.3      29        0    0.0000
    428 C         204.7437   93.7895  119.6551 C.3      29        0    0.0000
    429 H         204.4202   95.0362  122.3730 H        29        0    0.0000
    430 H         203.0479   95.2832  121.2782 H        29        0    0.0000
    431 H         203.4654   97.5040  122.1548 H        29        0    0.0000
    432 H         205.2192   97.2944  122.0036 H        29        0    0.0000
    433 H         203.1157   97.4841  119.8007 H        29        0    0.0000
    434 H         205.7887   98.9122  119.8949 H        29        0    0.0000
    435 H         204.4742   99.1612  118.7523 H        29        0    0.0000
    436 H         205.8469   96.6371  118.9079 H        29        0    0.0000
    437 H         204.2489   96.1200  118.4029 H        29        0    0.0000
    438 H         206.0266   95.1794  120.6229 H        29        0    0.0000
    439 H         204.7216   93.0460  120.4607 H        29        0    0.0000
    440 H         203.7536   93.7733  119.1843 H        29        0    0.0000
    441 C         208.8829   92.2229  120.4691 C.3      30        0    0.0000
    442 C         207.3752   92.3808  120.3450 C.3      30        0    0.0000
    443 C         207.2277   93.3485  119.1690 C.3      30        0    0.0000
    444 C         205.8061   93.3546  118.6015 C.3      30        0    0.0000
    445 C         208.3143   92.8901  118.1792 C.3      30        0    0.0000
    446 C         209.3529   92.1120  119.0132 C.3      30        0    0.0000
    447 C         210.8171   92.4969  118.7662 C.3      30        0    0.0000
    448 H         209.1542   91.3389  121.0547 H        30        0    0.0000
    449 H         209.3026   93.1002  120.9731 H        30        0    0.0000
    450 H         206.9091   91.4132  120.1222 H        30        0    0.0000
    451 H         206.9275   92.7736  121.2630 H        30        0    0.0000
    452 H         207.4868   94.3582  119.5195 H        30        0    0.0000
    453 H         205.7483   94.0221  117.7335 H        30        0    0.0000
    454 H         205.5550   92.3494  118.2426 H        30        0    0.0000
    455 H         207.8982   92.2225  117.4144 H        30        0    0.0000
    456 H         208.7432   93.7483  117.6513 H        30        0    0.0000
    457 H         209.2580   91.0545  118.7247 H        30        0    0.0000
    458 H         211.4649   91.6838  119.1148 H        30        0    0.0000
    459 H         211.0613   93.3758  119.3747 H        30        0    0.0000
    460 C         214.3992   94.7220  116.8490 C.3      31        0    0.0000
    461 C         212.9478   94.4921  116.4563 C.3      31        0    0.0000
    462 C         212.6410   93.0981  117.0179 C.3      31        0    0.0000
    463 C         211.1575   92.8096  117.2807 C.3      31        0    0.0000
    464 C         213.5747   92.9232  118.2333 C.3      31        0    0.0000
    465 C         214.4561   94.1847  118.2805 C.3      31        0    0.0000
    466 C         215.8930   93.9445  118.7501 C.3      31        0    0.0000
    467 H         215.0659   94.1561  116.1870 H        31        0    0.0000
    468 H         214.6764   95.7791  116.7924 H        31        0    0.0000
    469 H         212.3192   95.2671  116.9081 H        31        0    0.0000
    470 H         212.8061   94.5363  115.3719 H        31        0    0.0000
    471 H         212.9691   92.3682  116.2628 H        31        0    0.0000
    472 H         210.5646   93.6743  116.9595 H        31        0    0.0000
    473 H         210.8414   91.9637  116.6589 H        31        0    0.0000
    474 H         214.1814   92.0203  118.0901 H        31        0    0.0000
    475 H         213.0330   92.7946  119.1762 H        31        0    0.0000
    476 H         213.9716   94.9171  118.9426 H        31        0    0.0000
    477 H         216.1111   94.5602  119.6308 H        31        0    0.0000
    478 H         216.0021   92.8991  119.0624 H        31        0    0.0000
    479 C         216.9408   94.2463  117.6422 C.3      32        0    0.0000
    480 C         217.7075   95.5602  117.8499 C.3      32        0    0.0000
    481 H         217.6660   93.4226  117.6592 H        32        0    0.0000
    482 H         216.4572   94.2178  116.6587 H        32        0    0.0000
    483 H         217.3220   96.1149  118.7134 H        32        0    0.0000
    484 H         218.7523   95.3125  118.0772 H        32        0    0.0000
    485 C         215.2249   95.8173  113.9902 C.3      33        0    0.0000
    486 C         215.7574   95.4238  115.3672 C.3      33        0    0.0000
    487 C         216.3255   96.7046  116.0028 C.3      33        0    0.0000
    488 C         217.7274   96.4924  116.5892 C.3      33        0    0.0000
    489 C         216.2675   97.7556  114.8836 C.3      33        0    0.0000
    490 C         215.0734   97.3405  114.0146 C.3      33        0    0.0000
    491 C         213.7055   97.7688  114.5764 C.3      33        0    0.0000
    492 H         215.9670   95.5403  113.2304 H        33        0    0.0000
    493 H         214.2971   95.2923  113.7423 H        33        0    0.0000
    494 H         216.5032   94.6266  115.2748 H        33        0    0.0000
    495 H         214.9443   95.0334  115.9905 H        33        0    0.0000
    496 H         215.6435   97.0122  116.8081 H        33        0    0.0000
    497 H         218.1811   97.4557  116.8496 H        33        0    0.0000
    498 H         218.3720   96.0340  115.8296 H        33        0    0.0000
    499 H         216.1782   98.7720  115.2792 H        33        0    0.0000
    500 H         217.1824   97.7179  114.2779 H        33        0    0.0000
    501 H         215.1881   97.7396  112.9987 H        33        0    0.0000
    502 H         213.4365   97.1798  115.4598 H        33        0    0.0000
    503 H         212.9305   97.5771  113.8244 H        33        0    0.0000
    504 C         217.0513  100.7768  114.1865 C.3      34        0    0.0000
    505 C         215.9218   99.8043  113.8832 C.3      34        0    0.0000
    506 C         215.0642   99.8696  115.1486 C.3      34        0    0.0000
    507 C         213.6676   99.2825  114.9302 C.3      34        0    0.0000
    508 C         215.0834  101.3619  115.5271 C.3      34        0    0.0000
    509 C         216.3371  101.9584  114.8548 C.3      34        0    0.0000
    510 C         217.2178  102.8293  115.7598 C.3      34        0    0.0000
    511 H         217.5834  101.0806  113.2795 H        34        0    0.0000
    512 H         217.7754  100.2996  114.8556 H        34        0    0.0000
    513 H         215.3573  100.1399  113.0046 H        34        0    0.0000
    514 H         216.2930   98.7938  113.6865 H        34        0    0.0000
    515 H         215.5781   99.3079  115.9422 H        34        0    0.0000
    516 H         213.0516   99.4288  115.8254 H        34        0    0.0000
    517 H         213.1711   99.8222  114.1150 H        34        0    0.0000
    518 H         214.1940  101.8794  115.1462 H        34        0    0.0000
    519 H         215.0798  101.4849  116.6152 H        34        0    0.0000
    520 H         215.9782  102.6147  114.0480 H        34        0    0.0000
    521 H         218.0677  103.2054  115.1780 H        34        0    0.0000
    522 H         217.6357  102.2040  116.5578 H        34        0    0.0000
    523 C         213.3762  103.0348  114.5100 C.3      35        0    0.0000
    524 C         214.8365  103.4935  114.5384 C.3      35        0    0.0000
    525 C         215.0445  104.1846  115.8924 C.3      35        0    0.0000
    526 C         216.4786  104.0352  116.4078 C.3      35        0    0.0000
    527 C         213.9762  103.5386  116.7808 C.3      35        0    0.0000
    528 C         212.7626  103.4679  115.8480 C.3      35        0    0.0000
    529 C         211.6541  102.5200  116.3139 C.3      35        0    0.0000
    530 H         212.8339  103.4777  113.6676 H        35        0    0.0000
    531 H         213.3379  101.9461  114.3846 H        35        0    0.0000
    532 H         215.0577  104.1762  113.7109 H        35        0    0.0000
    533 H         215.4946  102.6235  114.4265 H        35        0    0.0000
    534 H         214.8038  105.2510  115.7733 H        35        0    0.0000
    535 H         216.4594  103.8893  117.4944 H        35        0    0.0000
    536 H         217.0470  104.9541  116.2223 H        35        0    0.0000
    537 H         213.7710  104.1368  117.6743 H        35        0    0.0000
    538 H         214.2850  102.5355  117.1005 H        35        0    0.0000
    539 H         212.3547  104.4819  115.7256 H        35        0    0.0000
    540 H         211.4084  102.7098  117.3653 H        35        0    0.0000
    541 H         212.0139  101.4857  116.2552 H        35        0    0.0000
    542 C         207.8679  105.3864  116.2758 C.3      36        0    0.0000
    543 C         208.6674  104.1581  116.6875 C.3      36        0    0.0000
    544 C         209.6779  104.0095  115.5455 C.3      36        0    0.0000
    545 C         210.3682  102.6453  115.4516 C.3      36        0    0.0000
    546 C         208.9274  104.4630  114.2780 C.3      36        0    0.0000
    547 C         207.6484  105.1643  114.7758 C.3      36        0    0.0000
    548 C         207.2237  106.4040  113.9828 C.3      36        0    0.0000
    549 H         206.9231  105.4615  116.8230 H        36        0    0.0000
    550 H         208.4508  106.2919  116.4774 H        36        0    0.0000
    551 H         209.1584  104.2956  117.6559 H        36        0    0.0000
    552 H         208.0013  103.2915  116.7638 H        36        0    0.0000
    553 H         210.4722  104.7499  115.7242 H        36        0    0.0000
    554 H         209.6615  101.8647  115.7575 H        36        0    0.0000
    555 H         210.6252  102.4450  114.4047 H        36        0    0.0000
    556 H         208.6558  103.6285  113.6226 H        36        0    0.0000
    557 H         209.5721  105.1226  113.6871 H        36        0    0.0000
    558 H         206.8298  104.4352  114.6778 H        36        0    0.0000
    559 H         207.9949  106.6342  113.2381 H        36        0    0.0000
    560 H         206.3066  106.1769  113.4266 H        36        0    0.0000
    561 C         203.3975  108.3873  114.1966 C.3      37        0    0.0000
    562 C         204.6869  107.7490  113.6741 C.3      37        0    0.0000
    563 C         205.8523  108.5437  114.2900 C.3      37        0    0.0000
    564 C         206.9783  107.6703  114.8571 C.3      37        0    0.0000
    565 C         205.1943  109.4168  115.3633 C.3      37        0    0.0000
    566 C         203.8040  109.7349  114.8027 C.3      37        0    0.0000
    567 C         203.8341  110.8784  113.7709 C.3      37        0    0.0000
    568 H         202.6362  108.4664  113.4147 H        37        0    0.0000
    569 H         202.9821  107.7483  114.9865 H        37        0    0.0000
    570 H         204.7115  106.6855  113.9360 H        37        0    0.0000
    571 H         204.7289  107.8143  112.5806 H        37        0    0.0000
    572 H         206.2646  109.2070  113.5161 H        37        0    0.0000
    573 H         207.9064  108.2531  114.8938 H        37        0    0.0000
    574 H         206.7497  107.3717  115.8866 H        37        0    0.0000
    575 H         205.7819  110.3152  115.5782 H        37        0    0.0000
    576 H         205.0910  108.8560  116.3013 H        37        0    0.0000
    577 H         203.1282  110.0026  115.6249 H        37        0    0.0000
    578 H         203.1803  110.6603  112.9193 H        37        0    0.0000
    579 H         204.8506  110.9832  113.3735 H        37        0    0.0000
    580 C         200.3131  111.1250  116.2653 C.3      38        0    0.0000
    581 C         201.3546  110.8801  115.1843 C.3      38        0    0.0000
    582 C         202.0026  112.2571  114.9922 C.3      38        0    0.0000
    583 C         203.4190  112.2383  114.4036 C.3      38        0    0.0000
    584 C         201.8588  112.9786  116.3480 C.3      38        0    0.0000
    585 C         201.0511  112.0307  117.2534 C.3      38        0    0.0000
    586 C         200.0935  112.7307  118.2208 C.3      38        0    0.0000
    587 H         199.4378  111.6321  115.8414 H        38        0    0.0000
    588 H         199.9775  110.1927  116.7297 H        38        0    0.0000
    589 H         202.0734  110.1301  115.5317 H        38        0    0.0000
    590 H         200.9035  110.5079  114.2591 H        38        0    0.0000
    591 H         201.3768  112.8093  114.2752 H        38        0    0.0000
    592 H         203.4966  113.0196  113.6381 H        38        0    0.0000
    593 H         204.1374  112.4973  115.1905 H        38        0    0.0000
    594 H         201.3289  113.9268  116.1932 H        38        0    0.0000
    595 H         202.8216  113.2251  116.8077 H        38        0    0.0000
    596 H         201.7607  111.4128  117.8228 H        38        0    0.0000
    597 H         199.6466  112.0002  118.9055 H        38        0    0.0000
    598 H         200.6574  113.4384  118.8401 H        38        0    0.0000
    599 C         196.7916  115.3086  120.0297 C.3      39        0    0.0000
    600 C         197.7080  114.1515  119.6571 C.3      39        0    0.0000
    601 C         198.3065  114.6059  118.3218 C.3      39        0    0.0000
    602 C         198.9619  113.5025  117.4857 C.3      39        0    0.0000
    603 C         197.1822  115.3924  117.6199 C.3      39        0    0.0000
    604 C         196.1121  115.6484  118.6991 C.3      39        0    0.0000
    605 C         195.4296  117.0185  118.6405 C.3      39        0    0.0000
    606 H         196.0681  115.0253  120.8004 H        39        0    0.0000
    607 H         197.3877  116.1439  120.4132 H        39        0    0.0000
    608 H         198.4779  113.9792  120.4155 H        39        0    0.0000
    609 H         197.1204  113.2326  119.5539 H        39        0    0.0000
    610 H         199.0995  115.3314  118.5583 H        39        0    0.0000
    611 H         198.1931  112.7863  117.1724 H        39        0    0.0000
    612 H         199.3736  113.9433  116.5700 H        39        0    0.0000
    613 H         196.7354  114.8426  116.7846 H        39        0    0.0000
    614 H         197.5908  116.3169  117.1978 H        39        0    0.0000
    615 H         195.3215  114.8987  118.5441 H        39        0    0.0000
    616 H         194.6561  117.0666  119.4161 H        39        0    0.0000
    617 H         196.1649  117.7957  118.8804 H        39        0    0.0000
    618 C         193.9338  120.9316  116.7721 C.3      40        0    0.0000
    619 C         194.5034  119.8757  117.7226 C.3      40        0    0.0000
    620 C         193.8204  118.5444  117.3617 C.3      40        0    0.0000
    621 C         194.7799  117.3519  117.2640 C.3      40        0    0.0000
    622 C         193.1061  118.8285  116.0365 C.3      40        0    0.0000
    623 C         192.6938  120.3016  116.1286 C.3      40        0    0.0000
    624 C         191.4123  120.5022  116.9597 C.3      40        0    0.0000
    625 H         193.7328  121.8764  117.2862 H        40        0    0.0000
    626 H         194.6765  121.1418  115.9918 H        40        0    0.0000
    627 H         195.5940  119.8343  117.6266 H        40        0    0.0000
    628 H         194.2797  120.1386  118.7631 H        40        0    0.0000
    629 H         193.0559  118.3315  118.1226 H        40        0    0.0000
    630 H         194.2287  116.4699  116.9166 H        40        0    0.0000
    631 H         195.5625  117.5499  116.5226 H        40        0    0.0000
    632 H         192.2553  118.1580  115.8772 H        40        0    0.0000
    633 H         193.7966  118.6939  115.1938 H        40        0    0.0000
    634 H         192.5414  120.7048  115.1194 H        40        0    0.0000
    635 H         191.3599  119.7843  117.7857 H        40        0    0.0000
    636 H         190.5357  120.3230  116.3258 H        40        0    0.0000
    637 C         192.1119  125.0520  115.6569 C.3      41        0    0.0000
    638 C         191.7420  123.5694  115.5669 C.3      41        0    0.0000
    639 C         192.2971  122.8994  116.8366 C.3      41        0    0.0000
    640 C         191.3122  121.9479  117.5270 C.3      41        0    0.0000
    641 C         192.7072  124.0689  117.7374 C.3      41        0    0.0000
    642 C         193.1639  125.1625  116.7659 C.3      41        0    0.0000
    643 C         194.6017  124.9368  116.2611 C.3      41        0    0.0000
    644 H         192.4436  125.4484  114.6925 H        41        0    0.0000
    645 H         191.2202  125.6214  115.9491 H        41        0    0.0000
    646 H         190.6565  123.4593  115.4674 H        41        0    0.0000
    647 H         192.1963  123.1162  114.6781 H        41        0    0.0000
    648 H         193.2057  122.3436  116.5642 H        41        0    0.0000
    649 H         191.5304  121.9161  118.6011 H        41        0    0.0000
    650 H         190.2856  122.3173  117.4221 H        41        0    0.0000
    651 H         193.4858  123.7826  118.4520 H        41        0    0.0000
    652 H         191.8445  124.4282  118.3134 H        41        0    0.0000
    653 H         193.0988  126.1416  117.2571 H        41        0    0.0000
    654 H         194.8468  125.6244  115.4441 H        41        0    0.0000
    655 H         194.6911  123.9203  115.8596 H        41        0    0.0000
    656 C         192.6458  125.6581  119.4409 C.3      42        0    0.0000
    657 C         193.5992  124.6209  118.8493 C.3      42        0    0.0000
    658 C         194.9838  125.2874  118.7734 C.3      42        0    0.0000
    659 C         195.6469  125.1001  117.4025 C.3      42        0    0.0000
    660 C         194.7327  126.7551  119.1522 C.3      42        0    0.0000
    661 C         193.5309  126.7162  120.1046 C.3      42        0    0.0000
    662 C         193.8863  126.3356  121.5535 C.3      42        0    0.0000
    663 H         192.0769  126.1228  118.6255 H        42        0    0.0000
    664 H         191.9203  125.2071  120.1251 H        42        0    0.0000
    665 H         193.2357  124.2807  117.8735 H        42        0    0.0000
    666 H         193.6506  123.7393  119.4990 H        42        0    0.0000
    667 H         195.6204  124.8305  119.5443 H        42        0    0.0000
    668 H         196.3152  124.2314  117.4180 H        42        0    0.0000
    669 H         196.2699  125.9746  117.1792 H        42        0    0.0000
    670 H         195.6176  127.2216  119.5959 H        42        0    0.0000
    671 H         194.4658  127.3381  118.2611 H        42        0    0.0000
    672 H         193.0145  127.6846  120.1016 H        42        0    0.0000
    673 H         194.8291  125.7798  121.5984 H        42        0    0.0000
    674 H         193.1112  125.6700  121.9522 H        42        0    0.0000
    675 C         193.9731  127.5813  122.4800 C.3      43        0    0.0000
    676 C         193.0339  127.5232  123.6931 C.3      43        0    0.0000
    677 H         195.0052  127.6293  122.8504 H        43        0    0.0000
    678 H         193.8088  128.4916  121.8915 H        43        0    0.0000
    679 H         192.6838  126.5008  123.8779 H        43        0    0.0000
    680 H         193.6050  127.8244  124.5807 H        43        0    0.0000
    681 C         192.1721  132.2637  123.8925 C.3      44        0    0.0000
    682 C         192.2148  130.8772  124.5195 C.3      44        0    0.0000
    683 C         192.1753  129.9496  123.3006 C.3      44        0    0.0000
    684 C         191.8054  128.4927  123.5948 C.3      44        0    0.0000
    685 C         191.2793  130.6681  122.2728 C.3      44        0    0.0000
    686 C         191.1156  132.1094  122.7936 C.3      44        0    0.0000
    687 C         191.1177  133.2032  121.7213 C.3      44        0    0.0000
    688 H         191.8985  133.0335  124.6208 H        44        0    0.0000
    689 H         193.1572  132.5159  123.4847 H        44        0    0.0000
    690 H         193.1170  130.7280  125.1207 H        44        0    0.0000
    691 H         191.3450  130.7388  125.1711 H        44        0    0.0000
    692 H         193.1914  129.9348  122.8781 H        44        0    0.0000
    693 H         191.2457  128.4486  124.5367 H        44        0    0.0000
    694 H         191.1313  128.1286  122.8105 H        44        0    0.0000
    695 H         190.2933  130.2024  122.1685 H        44        0    0.0000
    696 H         191.7481  130.6234  121.2839 H        44        0    0.0000
    697 H         190.1330  132.1574  123.2869 H        44        0    0.0000
    698 H         192.1497  133.5285  121.5437 H        44        0    0.0000
    699 H         190.7538  132.7805  120.7774 H        44        0    0.0000
    700 C         187.0426  133.5419  123.8347 C.3      45        0    0.0000
    701 C         188.4574  133.1894  123.3681 C.3      45        0    0.0000
    702 C         188.7637  134.1156  122.1839 C.3      45        0    0.0000
    703 C         190.2540  134.4504  122.0771 C.3      45        0    0.0000
    704 C         187.8550  135.3223  122.4415 C.3      45        0    0.0000
    705 C         186.5528  134.6665  122.9129 C.3      45        0    0.0000
    706 C         185.5797  135.6151  123.6184 C.3      45        0    0.0000
    707 H         186.3764  132.6740  123.7835 H        45        0    0.0000
    708 H         187.0737  133.8662  124.8818 H        45        0    0.0000
    709 H         188.5309  132.1371  123.0730 H        45        0    0.0000
    710 H         189.1632  133.3455  124.1927 H        45        0    0.0000
    711 H         188.4302  133.6157  121.2628 H        45        0    0.0000
    712 H         190.6036  134.8551  123.0344 H        45        0    0.0000
    713 H         190.4152  135.2323  121.3257 H        45        0    0.0000
    714 H         187.7069  135.9228  121.5384 H        45        0    0.0000
    715 H         188.2737  135.9699  123.2220 H        45        0    0.0000
    716 H         186.0574  134.2069  122.0452 H        45        0    0.0000
    717 H         185.6241  135.4672  124.7038 H        45        0    0.0000
    718 H         184.5547  135.3781  123.3088 H        45        0    0.0000
    719 C         183.2421  139.3412  124.8640 C.3      46        0    0.0000
    720 C         183.9560  137.9998  124.7971 C.3      46        0    0.0000
    721 C         184.6461  138.0288  123.4275 C.3      46        0    0.0000
    722 C         185.8634  137.1060  123.2876 C.3      46        0    0.0000
    723 C         184.9062  139.5185  123.1230 C.3      46        0    0.0000
    724 C         184.2760  140.3088  124.2844 C.3      46        0    0.0000
    725 C         183.6521  141.6478  123.8833 C.3      46        0    0.0000
    726 H         182.3333  139.3188  124.2504 H        46        0    0.0000
    727 H         182.9581  139.6036  125.8877 H        46        0    0.0000
    728 H         184.6747  137.9261  125.6205 H        46        0    0.0000
    729 H         183.2584  137.1610  124.8858 H        46        0    0.0000
    730 H         183.9083  137.6819  122.6887 H        46        0    0.0000
    731 H         186.2433  137.1715  122.2611 H        46        0    0.0000
    732 H         186.6647  137.4683  123.9426 H        46        0    0.0000
    733 H         184.4343  139.7749  122.1663 H        46        0    0.0000
    734 H         185.9704  139.7575  123.0254 H        46        0    0.0000
    735 H         185.0523  140.4792  125.0445 H        46        0    0.0000
    736 H         182.6755  141.4841  123.4124 H        46        0    0.0000
    737 H         183.4708  142.2471  124.7834 H        46        0    0.0000
    738 C         188.1544  141.4763  123.6451 C.3      47        0    0.0000
    739 C         186.6977  141.5774  124.0754 C.3      47        0    0.0000
    740 C         185.9761  141.9053  122.7641 C.3      47        0    0.0000
    741 C         184.5570  142.4614  122.9159 C.3      47        0    0.0000
    742 C         186.9564  142.7928  121.9724 C.3      47        0    0.0000
    743 C         188.3130  142.6662  122.6929 C.3      47        0    0.0000
    744 C         189.5430  142.6194  121.7813 C.3      47        0    0.0000
    745 H         188.8378  141.5380  124.4977 H        47        0    0.0000
    746 H         188.3256  140.5190  123.1405 H        47        0    0.0000
    747 H         186.3374  140.6451  124.5211 H        47        0    0.0000
    748 H         186.5858  142.3751  124.8180 H        47        0    0.0000
    749 H         185.8837  140.9612  122.2063 H        47        0    0.0000
    750 H         184.6144  143.4962  123.2740 H        47        0    0.0000
    751 H         184.0779  142.4953  121.9303 H        47        0    0.0000
    752 H         186.6525  143.8449  121.9467 H        47        0    0.0000
    753 H         186.9947  142.4568  120.9306 H        47        0    0.0000
    754 H         188.4227  143.5639  123.3199 H        47        0    0.0000
    755 H         190.4480  142.6664  122.3986 H        47        0    0.0000
    756 H         189.5667  141.6549  121.2605 H        47        0    0.0000
    757 C         187.4106  146.4745  122.2064 C.3      48        0    0.0000
    758 C         188.0129  145.0803  122.2910 C.3      48        0    0.0000
    759 C         188.4836  144.8055  120.8572 C.3      48        0    0.0000
    760 C         189.5993  143.7614  120.7227 C.3      48        0    0.0000
    761 C         188.7940  146.1882  120.2479 C.3      48        0    0.0000
    762 C         188.4058  147.2244  121.3185 C.3      48        0    0.0000
    763 C         187.8197  148.5263  120.7667 C.3      48        0    0.0000
    764 H         186.4185  146.4319  121.7407 H        48        0    0.0000
    765 H         187.3065  146.9363  123.1930 H        48        0    0.0000
    766 H         188.8434  145.0831  123.0052 H        48        0    0.0000
    767 H         187.2821  144.3396  122.6305 H        48        0    0.0000
    768 H         187.6187  144.4070  120.3061 H        48        0    0.0000
    769 H         189.5501  143.3152  119.7223 H        48        0    0.0000
    770 H         190.5710  144.2642  120.7948 H        48        0    0.0000
    771 H         188.1985  146.3180  119.3356 H        48        0    0.0000
    772 H         189.8441  146.3048  119.9599 H        48        0    0.0000
    773 H         189.2999  147.4499  121.9178 H        48        0    0.0000
    774 H         187.9333  149.3331  121.5004 H        48        0    0.0000
    775 H         188.3839  148.8288  119.8764 H        48        0    0.0000
    776 C         186.8604  150.1762  117.6831 C.3      49        0    0.0000
    777 C         186.8428  150.5545  119.1666 C.3      49        0    0.0000
    778 C         185.7481  149.7049  119.8213 C.3      49        0    0.0000
    779 C         186.3192  148.3897  120.3840 C.3      49        0    0.0000
    780 C         184.7509  149.5232  118.6699 C.3      49        0    0.0000
    781 C         185.6302  149.2862  117.4396 C.3      49        0    0.0000
    782 C         184.8887  149.5726  116.1289 C.3      49        0    0.0000
    783 H         186.8481  151.0842  117.0696 H        49        0    0.0000
    784 H         187.7776  149.6297  117.4356 H        49        0    0.0000
    785 H         186.5802  151.6162  119.2575 H        49        0    0.0000
    786 H         187.8251  150.4268  119.6327 H        49        0    0.0000
    787 H         185.2793  150.2679  120.6386 H        49        0    0.0000
    788 H         186.2282  147.6034  119.6249 H        49        0    0.0000
    789 H         185.7495  148.0498  121.2554 H        49        0    0.0000
    790 H         184.1657  150.4440  118.5474 H        49        0    0.0000
    791 H         184.0430  148.7042  118.8288 H        49        0    0.0000
    792 H         185.9563  148.2365  117.4435 H        49        0    0.0000
    793 H         183.8062  149.4821  116.2756 H        49        0    0.0000
    794 H         185.1717  148.8240  115.3794 H        49        0    0.0000
    795 C         185.2218  150.9868  115.5728 C.3      50        0    0.0000
    796 C         184.6678  151.2501  114.1653 C.3      50        0    0.0000
    797 H         184.7666  151.7124  116.2591 H        50        0    0.0000
    798 H         186.3046  151.1540  115.6131 H        50        0    0.0000
    799 H         185.3903  150.9633  113.3922 H        50        0    0.0000
    800 H         183.7855  150.6132  114.0220 H        50        0    0.0000
    801 C         181.5946  152.5381  111.1883 C.3      51        0    0.0000
    802 C         182.5570  151.8389  112.1362 C.3      51        0    0.0000
    803 C         183.4950  152.9648  112.5896 C.3      51        0    0.0000
    804 C         184.2016  152.7287  113.9305 C.3      51        0    0.0000
    805 C         182.6646  154.2616  112.4984 C.3      51        0    0.0000
    806 C         181.3017  153.8562  111.9081 C.3      51        0    0.0000
    807 C         180.6730  154.8952  110.9763 C.3      51        0    0.0000
    808 H         182.0773  152.7150  110.2194 H        51        0    0.0000
    809 H         180.6881  151.9496  111.0172 H        51        0    0.0000
    810 H         181.9973  151.4056  112.9722 H        51        0    0.0000
    811 H         183.1008  151.0281  111.6415 H        51        0    0.0000
    812 H         184.2884  153.0466  111.8318 H        51        0    0.0000
    813 H         185.0769  153.3865  113.9920 H        51        0    0.0000
    814 H         183.5301  153.0225  114.7459 H        51        0    0.0000
    815 H         183.1845  154.9730  111.8446 H        51        0    0.0000
    816 H         182.5346  154.7575  113.4661 H        51        0    0.0000
    817 H         180.6150  153.6481  112.7415 H        51        0    0.0000
    818 H         181.1973  154.9062  110.0134 H        51        0    0.0000
    819 H         179.6348  154.6120  110.7659 H        51        0    0.0000
    820 C         181.1067  158.4500  109.1149 C.3      52        0    0.0000
    821 C         180.4699  158.6106  110.4980 C.3      52        0    0.0000
    822 C         179.7634  157.2868  110.8101 C.3      52        0    0.0000
    823 C         180.6867  156.3263  111.5832 C.3      52        0    0.0000
    824 C         179.3656  156.7975  109.4117 C.3      52        0    0.0000
    825 C         180.5760  157.1285  108.5349 C.3      52        0    0.0000
    826 C         180.2184  157.1870  107.0454 C.3      52        0    0.0000
    827 H         180.8540  159.3133  108.4888 H        52        0    0.0000
    828 H         182.1992  158.4162  109.1953 H        52        0    0.0000
    829 H         179.7260  159.4162  110.4532 H        52        0    0.0000
    830 H         181.2059  158.8964  111.2563 H        52        0    0.0000
    831 H         178.8648  157.4774  111.4108 H        52        0    0.0000
    832 H         180.3484  156.2614  112.6244 H        52        0    0.0000
    833 H         181.7154  156.7010  111.6118 H        52        0    0.0000
    834 H         178.4840  157.3548  109.0690 H        52        0    0.0000
    835 H         179.1147  155.7332  109.3751 H        52        0    0.0000
    836 H         181.3384  156.3520  108.6890 H        52        0    0.0000
    837 H         180.4599  156.2354  106.5577 H        52        0    0.0000
    838 H         180.8246  157.9581  106.5555 H        52        0    0.0000
    839 C         178.7146  157.5182  106.8239 C.3      53        0    0.0000
    840 C         178.4678  158.8704  106.1399 C.3      53        0    0.0000
    841 H         178.2474  157.5485  107.8166 H        53        0    0.0000
    842 H         178.2330  156.7000  106.2757 H        53        0    0.0000
    843 H         179.2158  159.5820  106.5124 H        53        0    0.0000
    844 H         178.6137  158.8014  105.0555 H        53        0    0.0000
    845 C         174.0402  157.3196  105.8172 C.3      54        0    0.0000
    846 C         175.3639  157.6031  106.5109 C.3      54        0    0.0000
    847 C         175.9291  158.7744  105.7049 C.3      54        0    0.0000
    848 C         177.0608  159.4915  106.4453 C.3      54        0    0.0000
    849 C         174.6951  159.6478  105.4139 C.3      54        0    0.0000
    850 C         173.4713  158.7179  105.5453 C.3      54        0    0.0000
    851 C         172.4558  158.8005  104.3986 C.3      54        0    0.0000
    852 H         173.3711  156.7206  106.4430 H        54        0    0.0000
    853 H         174.2235  156.7612  104.8929 H        54        0    0.0000
    854 H         175.1915  157.8882  107.5559 H        54        0    0.0000
    855 H         176.0276  156.7332  106.4979 H        54        0    0.0000
    856 H         176.3064  158.3840  104.7485 H        54        0    0.0000
    857 H         177.0708  160.5557  106.1813 H        54        0    0.0000
    858 H         176.8789  159.4370  107.5252 H        54        0    0.0000
    859 H         174.6044  160.4622  106.1435 H        54        0    0.0000
    860 H         174.7759  160.1145  104.4266 H        54        0    0.0000
    861 H         172.9368  159.0297  106.4550 H        54        0    0.0000
    862 H         171.5448  158.2630  104.6874 H        54        0    0.0000
    863 H         172.8637  158.2797  103.5240 H        54        0    0.0000
    864 C         168.3702  160.9003  103.5220 C.3      55        0    0.0000
    865 C         169.4961  160.1657  104.2335 C.3      55        0    0.0000
    866 C         170.7015  160.3746  103.3080 C.3      55        0    0.0000
    867 C         172.0740  160.2499  103.9815 C.3      55        0    0.0000
    868 C         170.4409  161.7085  102.5784 C.3      55        0    0.0000
    869 C         169.0499  162.1826  103.0376 C.3      55        0    0.0000
    870 C         168.2304  162.8992  101.9616 C.3      55        0    0.0000
    871 H         168.0017  160.3045  102.6781 H        55        0    0.0000
    872 H         167.5282  161.1053  104.1903 H        55        0    0.0000
    873 H         169.6537  160.6078  105.2232 H        55        0    0.0000
    874 H         169.2672  159.1046  104.3736 H        55        0    0.0000
    875 H         170.6594  159.5852  102.5428 H        55        0    0.0000
    876 H         172.8416  160.6320  103.2981 H        55        0    0.0000
    877 H         172.0967  160.8921  104.8699 H        55        0    0.0000
    878 H         170.4629  161.5332  101.4956 H        55        0    0.0000
    879 H         171.1987  162.4698  102.7915 H        55        0    0.0000
    880 H         169.1829  162.8495  103.9020 H        55        0    0.0000
    881 H         167.3230  163.3299  102.4014 H        55        0    0.0000
    882 H         168.8133  163.7366  101.5599 H        55        0    0.0000
    883 C         167.8342  161.9589  100.7888 C.3      56        0    0.0000
    884 C         166.9656  162.6314   99.7161 C.3      56        0    0.0000
    885 H         167.2576  161.1334  101.2255 H        56        0    0.0000
    886 H         168.7357  161.5144  100.3510 H        56        0    0.0000
    887 H         167.5267  162.6290   98.7729 H        56        0    0.0000
    888 H         166.0452  162.0640   99.5347 H        56        0    0.0000
    889 C         162.9328  164.4197  100.4184 C.3      57        0    0.0000
    890 C         164.0994  163.5441   99.9546 C.3      57        0    0.0000
    891 C         165.2184  164.5021   99.5083 C.3      57        0    0.0000
    892 C         166.6116  164.1268  100.0283 C.3      57        0    0.0000
    893 C         164.7626  165.8787  100.0028 C.3      57        0    0.0000
    894 C         163.2335  165.8344   99.9114 C.3      57        0    0.0000
    895 C         162.7229  166.0858   98.4799 C.3      57        0    0.0000
    896 H         161.9690  164.0257  100.0822 H        57        0    0.0000
    897 H         162.9117  164.4278  101.5157 H        57        0    0.0000
    898 H         164.4102  162.8743  100.7639 H        57        0    0.0000
    899 H         163.7917  162.9134   99.1124 H        57        0    0.0000
    900 H         165.2366  164.5231   98.4093 H        57        0    0.0000
    901 H         167.3622  164.7687   99.5519 H        57        0    0.0000
    902 H         166.6788  164.3064  101.1074 H        57        0    0.0000
    903 H         165.2004  166.6915   99.4143 H        57        0    0.0000
    904 H         165.0624  166.0276  101.0482 H        57        0    0.0000
    905 H         162.8026  166.5821  100.5894 H        57        0    0.0000
    906 H         161.8961  165.4116   98.2305 H        57        0    0.0000
    907 H         163.5284  165.8802   97.7650 H        57        0    0.0000
    908 C         162.2635  167.5593   98.2811 C.3      58        0    0.0000
    909 C         160.7522  167.7699   98.4508 C.3      58        0    0.0000
    910 H         162.7784  168.1574   99.0439 H        58        0    0.0000
    911 H         162.6107  167.9264   97.3081 H        58        0    0.0000
    912 H         160.1796  167.0333   97.8749 H        58        0    0.0000
    913 H         160.5020  167.6057   99.5067 H        58        0    0.0000
    914 C         157.9136  169.1960   95.7998 C.3      59        0    0.0000
    915 C         159.2652  168.4809   95.8763 C.3      59        0    0.0000
    916 C         160.2327  169.4480   96.5675 C.3      59        0    0.0000
    917 C         160.2659  169.2163   98.0900 C.3      59        0    0.0000
    918 C         159.6778  170.8142   96.1448 C.3      59        0    0.0000
    919 C         158.1583  170.6510   96.2332 C.3      59        0    0.0000
    920 C         157.4101  171.6966   95.3985 C.3      59        0    0.0000
    921 H         157.5141  169.1241   94.7818 H        59        0    0.0000
    922 H         157.1871  168.7194   96.4679 H        59        0    0.0000
    923 H         159.6185  168.2827   94.8564 H        59        0    0.0000
    924 H         159.1876  167.5129   96.3819 H        59        0    0.0000
    925 H         161.2447  169.3129   96.1647 H        59        0    0.0000
    926 H         159.2566  169.3513   98.4971 H        59        0    0.0000
    927 H         160.9051  169.9518   98.5899 H        59        0    0.0000
    928 H         159.9783  171.0239   95.1099 H        59        0    0.0000
    929 H         160.0354  171.6425   96.7637 H        59        0    0.0000
    930 H         157.8592  170.7535   97.2858 H        59        0    0.0000
    931 H         156.4189  171.8875   95.8261 H        59        0    0.0000
    932 H         157.2501  171.3076   94.3860 H        59        0    0.0000
    933 C         155.5712  175.0878   93.5081 C.3      60        0    0.0000
    934 C         156.7670  174.1495   93.4536 C.3      60        0    0.0000
    935 C         157.3570  174.2380   94.8668 C.3      60        0    0.0000
    936 C         158.2007  173.0328   95.3011 C.3      60        0    0.0000
    937 C         156.1726  174.5847   95.7922 C.3      60        0    0.0000
    938 C         154.9527  174.7758   94.8724 C.3      60        0    0.0000
    939 C         153.9740  175.8624   95.3245 C.3      60        0    0.0000
    940 H         155.9046  176.1314   93.4540 H        60        0    0.0000
    941 H         154.8718  174.9084   92.6859 H        60        0    0.0000
    942 H         156.4271  173.1370   93.2104 H        60        0    0.0000
    943 H         157.4895  174.4525   92.6892 H        60        0    0.0000
    944 H         158.0303  175.1080   94.8798 H        60        0    0.0000
    945 H         159.0255  172.9014   94.5906 H        60        0    0.0000
    946 H         158.6565  173.2469   96.2751 H        60        0    0.0000
    947 H         156.4053  175.5068   96.3393 H        60        0    0.0000
    948 H         155.9736  173.8126   96.5429 H        60        0    0.0000
    949 H         154.4245  173.8140   94.7990 H        60        0    0.0000
    950 H         152.9424  175.4994   95.2444 H        60        0    0.0000
    951 H         154.1468  176.0877   96.3836 H        60        0    0.0000
    952 C         150.8255  179.0116   94.4761 C.3      61        0    0.0000
    953 C         152.1414  178.6156   93.8014 C.3      61        0    0.0000
    954 C         153.1100  178.2439   94.9317 C.3      61        0    0.0000
    955 C         154.1200  177.1750   94.5047 C.3      61        0    0.0000
    956 C         152.1733  177.8197   96.0677 C.3      61        0    0.0000
    957 C         151.0539  178.8628   95.9860 C.3      61        0    0.0000
    958 C         149.7727  178.4837   96.7339 C.3      61        0    0.0000
    959 H         150.5381  180.0375   94.2216 H        61        0    0.0000
    960 H         150.0224  178.3527   94.1249 H        61        0    0.0000
    961 H         152.5420  179.4344   93.1941 H        61        0    0.0000
    962 H         151.9657  177.7678   93.1283 H        61        0    0.0000
    963 H         153.6438  179.1550   95.2390 H        61        0    0.0000
    964 H         155.1367  177.5617   94.6437 H        61        0    0.0000
    965 H         154.0097  176.9526   93.4369 H        61        0    0.0000
    966 H         152.6763  177.8349   97.0398 H        61        0    0.0000
    967 H         151.7817  176.8090   95.8974 H        61        0    0.0000
    968 H         151.4370  179.8193   96.3705 H        61        0    0.0000
    969 H         149.4805  179.2878   97.4195 H        61        0    0.0000
    970 H         149.9622  177.5964   97.3499 H        61        0    0.0000
    971 C         148.5953  178.1732   95.7695 C.3      62        0    0.0000
    972 C         147.2666  178.8261   96.1765 C.3      62        0    0.0000
    973 H         148.8802  178.5660   94.7850 H        62        0    0.0000
    974 H         148.4879  177.0882   95.6548 H        62        0    0.0000
    975 H         146.6811  178.1666   96.8277 H        62        0    0.0000
    976 H         147.4948  179.7249   96.7637 H        62        0    0.0000
    977 C         143.0847  180.8585   95.2922 C.3      63        0    0.0000
    978 C         144.2075  180.1107   96.0095 C.3      63        0    0.0000
    979 C         145.5188  180.5065   95.3090 C.3      63        0    0.0000
    980 C         146.3864  179.2889   94.9641 C.3      63        0    0.0000
    981 C         145.0772  181.3268   94.0871 C.3      63        0    0.0000
    982 C         143.7605  181.9891   94.5120 C.3      63        0    0.0000
    983 C         143.9391  183.2510   95.3758 C.3      63        0    0.0000
    984 H         142.5968  180.1740   94.5865 H        63        0    0.0000
    985 H         142.3148  181.2095   95.9866 H        63        0    0.0000
    986 H         144.0217  179.0313   95.9885 H        63        0    0.0000
    987 H         144.2490  180.4098   97.0635 H        63        0    0.0000
    988 H         146.0788  181.1642   95.9887 H        63        0    0.0000
    989 H         147.0296  179.5106   94.1046 H        63        0    0.0000
    990 H         145.7387  178.4550   94.6681 H        63        0    0.0000
    991 H         145.8409  182.0476   93.7790 H        63        0    0.0000
    992 H         144.8865  180.6646   93.2325 H        63        0    0.0000
    993 H         143.1599  182.2383   93.6279 H        63        0    0.0000
    994 H         144.9159  183.7155   95.2035 H        63        0    0.0000
    995 H         143.9085  182.9701   96.4356 H        63        0    0.0000
    996 C         139.7270  183.1924   96.9861 C.3      64        0    0.0000
    997 C         141.2130  183.0389   96.6518 C.3      64        0    0.0000
    998 C         141.4157  183.6951   95.2797 C.3      64        0    0.0000
    999 C         142.8155  184.2957   95.1229 C.3      64        0    0.0000
   1000 C         140.2726  184.7130   95.2082 C.3      64        0    0.0000
   1001 C         139.0936  183.9350   95.8022 C.3      64        0    0.0000
   1002 C         137.9060  184.8028   96.2276 C.3      64        0    0.0000
   1003 H         139.2488  182.2191   97.1405 H        64        0    0.0000
   1004 H         139.6193  183.7588   97.9190 H        64        0    0.0000
   1005 H         141.5118  181.9853   96.6312 H        64        0    0.0000
   1006 H         141.8140  183.5320   97.4252 H        64        0    0.0000
   1007 H         141.2530  182.9300   94.5066 H        64        0    0.0000
   1008 H         142.9381  185.1192   95.8365 H        64        0    0.0000
   1009 H         142.9351  184.7249   94.1213 H        64        0    0.0000
   1010 H         140.0745  185.0340   94.1807 H        64        0    0.0000
   1011 H         140.4998  185.6019   95.8099 H        64        0    0.0000
   1012 H         138.7608  183.1874   95.0674 H        64        0    0.0000
   1013 H         137.9402  184.9916   97.3069 H        64        0    0.0000
   1014 H         136.9730  184.2611   96.0308 H        64        0    0.0000
   1015 C         137.8608  186.1565   95.4670 C.3      65        0    0.0000
   1016 C         136.5176  186.8914   95.5807 C.3      65        0    0.0000
   1017 H         138.0367  185.9306   94.4075 H        65        0    0.0000
   1018 H         138.6922  186.7919   95.7942 H        65        0    0.0000
   1019 H         135.7308  186.2222   95.2097 H        65        0    0.0000
   1020 H         136.2722  187.1146   96.6257 H        65        0    0.0000
   1021 C         135.7856  191.2069   96.8081 C.3      66        0    0.0000
   1022 C         135.9091  189.6816   96.7751 C.3      66        0    0.0000
   1023 C         135.4956  189.2372   95.3606 C.3      66        0    0.0000
   1024 C         136.4352  188.2039   94.7267 C.3      66        0    0.0000
   1025 C         135.4309  190.5386   94.5549 C.3      66        0    0.0000
   1026 C         134.9762  191.5963   95.5663 C.3      66        0    0.0000
   1027 C         133.4542  191.5675   95.8023 C.3      66        0    0.0000
   1028 H         135.3502  191.5601   97.7477 H        66        0    0.0000
   1029 H         136.7897  191.6442   96.7346 H        66        0    0.0000
   1030 H         136.9309  189.3826   97.0335 H        66        0    0.0000
   1031 H         135.2415  189.2287   97.5174 H        66        0    0.0000
   1032 H         134.4807  188.8178   95.4137 H        66        0    0.0000
   1033 H         136.0687  187.9455   93.7261 H        66        0    0.0000
   1034 H         137.4384  188.6266   94.5983 H        66        0    0.0000
   1035 H         134.7583  190.4556   93.6951 H        66        0    0.0000
   1036 H         136.4260  190.8015   94.1732 H        66        0    0.0000
   1037 H         135.2725  192.5928   95.2150 H        66        0    0.0000
   1038 H         133.2158  191.6949   96.8640 H        66        0    0.0000
   1039 H         133.0577  190.5903   95.5018 H        66        0    0.0000
   1040 C         135.5145  192.2487   92.6305 C.3      67        0    0.0000
   1041 C         134.2238  191.6438   93.1809 C.3      67        0    0.0000
   1042 C         133.3149  192.8228   93.5694 C.3      67        0    0.0000
   1043 C         132.7207  192.6627   94.9749 C.3      67        0    0.0000
   1044 C         134.1976  194.0691   93.4012 C.3      67        0    0.0000
   1045 C         135.1867  193.7040   92.2869 C.3      67        0    0.0000
   1046 C         134.6125  193.8391   90.8647 C.3      67        0    0.0000
   1047 H         136.2800  192.2268   93.4166 H        67        0    0.0000
   1048 H         135.9065  191.6795   91.7817 H        67        0    0.0000
   1049 H         134.4427  190.9785   94.0233 H        67        0    0.0000
   1050 H         133.7311  191.0378   92.4115 H        67        0    0.0000
   1051 H         132.4959  192.8722   92.8380 H        67        0    0.0000
   1052 H         131.6526  192.4242   94.9120 H        67        0    0.0000
   1053 H         132.8012  193.6150   95.5126 H        67        0    0.0000
   1054 H         133.6074  194.9627   93.1760 H        67        0    0.0000
   1055 H         134.7557  194.2681   94.3254 H        67        0    0.0000
   1056 H         136.0934  194.3167   92.3704 H        67        0    0.0000
   1057 H         133.6877  193.2629   90.7531 H        67        0    0.0000
   1058 H         135.3289  193.4239   90.1455 H        67        0    0.0000
   1059 C         134.3498  195.3224   90.4795 C.3      68        0    0.0000
   1060 C         134.8071  195.6888   89.0603 C.3      68        0    0.0000
   1061 H         133.2649  195.4777   90.5384 H        68        0    0.0000
   1062 H         134.8021  195.9841   91.2276 H        68        0    0.0000
   1063 H         135.6152  195.0310   88.7193 H        68        0    0.0000
   1064 H         133.9625  195.5276   88.3782 H        68        0    0.0000
   1065 C         134.8711  197.4296   92.1507 C.3      69        0    0.0000
   1066 C         133.8488  197.3484   91.0138 C.3      69        0    0.0000
   1067 C         134.4474  198.1193   89.8321 C.3      69        0    0.0000
   1068 C         135.2409  197.1868   88.8975 C.3      69        0    0.0000
   1069 C         135.2971  199.1826   90.5395 C.3      69        0    0.0000
   1070 C         135.9467  198.4349   91.7067 C.3      69        0    0.0000
   1071 C         136.4249  199.3829   92.8124 C.3      69        0    0.0000
   1072 H         134.3708  197.7338   93.0771 H        69        0    0.0000
   1073 H         135.3232  196.4480   92.3334 H        69        0    0.0000
   1074 H         132.9225  197.8410   91.3355 H        69        0    0.0000
   1075 H         133.5920  196.3129   90.7682 H        69        0    0.0000
   1076 H         133.6456  198.6007   89.2576 H        69        0    0.0000
   1077 H         136.3090  197.2631   89.1344 H        69        0    0.0000
   1078 H         135.1312  197.4870   87.8500 H        69        0    0.0000
   1079 H         134.6424  199.9796   90.9156 H        69        0    0.0000
   1080 H         136.0427  199.6507   89.8899 H        69        0    0.0000
   1081 H         136.8085  197.8721   91.3213 H        69        0    0.0000
   1082 H         137.4093  199.0723   93.1815 H        69        0    0.0000
   1083 H         135.7347  199.3282   93.6625 H        69        0    0.0000
   1084 C         139.9026  202.3714   93.0555 C.3      70        0    0.0000
   1085 C         138.7668  201.4280   93.4260 C.3      70        0    0.0000
   1086 C         137.9187  201.3967   92.1503 C.3      70        0    0.0000
   1087 C         136.4953  200.8570   92.3202 C.3      70        0    0.0000
   1088 C         138.0251  202.8154   91.5574 C.3      70        0    0.0000
   1089 C         139.1806  203.5005   92.3129 C.3      70        0    0.0000
   1090 C         140.0770  204.4086   91.4655 C.3      70        0    0.0000
   1091 H         140.4363  202.7355   93.9389 H        70        0    0.0000
   1092 H         140.6220  201.8503   92.4142 H        70        0    0.0000
   1093 H         139.1338  200.4341   93.7003 H        70        0    0.0000
   1094 H         138.2125  201.8335   94.2796 H        70        0    0.0000
   1095 H         138.4270  200.7210   91.4459 H        70        0    0.0000
   1096 H         135.9541  201.4921   93.0316 H        70        0    0.0000
   1097 H         135.9660  200.9344   91.3631 H        70        0    0.0000
   1098 H         137.1074  203.3997   91.6844 H        70        0    0.0000
   1099 H         138.2020  202.7489   90.4785 H        70        0    0.0000
   1100 H         138.7204  204.1427   93.0789 H        70        0    0.0000
   1101 H         140.2949  205.3234   92.0293 H        70        0    0.0000
   1102 H         141.0371  203.9069   91.2957 H        70        0    0.0000
   1103 C         139.4678  204.8034   90.0867 C.3      71        0    0.0000
   1104 C         139.1007  206.2896   89.9695 C.3      71        0    0.0000
   1105 H         138.5491  204.2152   89.9662 H        71        0    0.0000
   1106 H         140.1452  204.4951   89.2817 H        71        0    0.0000
   1107 H         138.7945  206.6440   90.9621 H        71        0    0.0000
   1108 H         139.9677  206.8927   89.6751 H        71        0    0.0000
   1109 C         137.9037  206.5755   88.9978 C.3      72        0    0.0000
   1110 C         137.5441  208.0628   88.8716 C.3      72        0    0.0000
   1111 H         137.0319  206.0478   89.4053 H        72        0    0.0000
   1112 H         138.1094  206.1302   88.0173 H        72        0    0.0000
   1113 H         137.2294  208.4220   89.8598 H        72        0    0.0000
   1114 H         138.4166  208.6611   88.5839 H        72        0    0.0000
   1115 C         134.0183  205.4242   87.4501 C.3      73        0    0.0000
   1116 C         135.1032  206.1626   88.2385 C.3      73        0    0.0000
   1117 C         135.8208  207.0737   87.2339 C.3      73        0    0.0000
   1118 C         136.3583  208.3502   87.8867 C.3      73        0    0.0000
   1119 C         134.7584  207.3071   86.1547 C.3      73        0    0.0000
   1120 C         134.1257  205.9199   86.0020 C.3      73        0    0.0000
   1121 C         132.7743  205.9107   85.2820 C.3      73        0    0.0000
   1122 H         134.1529  204.3386   87.5046 H        73        0    0.0000
   1123 H         133.0357  205.6518   87.8803 H        73        0    0.0000
   1124 H         135.8049  205.4630   88.7052 H        73        0    0.0000
   1125 H         134.6378  206.7423   89.0447 H        73        0    0.0000
   1126 H         136.6525  206.5068   86.7907 H        73        0    0.0000
   1127 H         135.5511  208.8384   88.4458 H        73        0    0.0000
   1128 H         136.6858  209.0611   87.1190 H        73        0    0.0000
   1129 H         135.1987  207.6612   85.2172 H        73        0    0.0000
   1130 H         134.0158  208.0432   86.4870 H        73        0    0.0000
   1131 H         134.8332  205.2685   85.4684 H        73        0    0.0000
   1132 H         131.9900  205.5365   85.9502 H        73        0    0.0000
   1133 H         132.8217  205.2195   84.4320 H        73        0    0.0000
   1134 C         129.1381  208.3162   86.4736 C.3      74        0    0.0000
   1135 C         130.1129  207.2425   86.0107 C.3      74        0    0.0000
   1136 C         131.3566  208.0518   85.6286 C.3      74        0    0.0000
   1137 C         132.3765  207.3164   84.7540 C.3      74        0    0.0000
   1138 C         130.8177  209.3753   85.0511 C.3      74        0    0.0000
   1139 C         129.3239  209.4204   85.4277 C.3      74        0    0.0000
   1140 C         128.7838  210.7981   85.8231 C.3      74        0    0.0000
   1141 H         128.1081  207.9476   86.5040 H        74        0    0.0000
   1142 H         129.4089  208.6525   87.4805 H        74        0    0.0000
   1143 H         130.3230  206.5135   86.7994 H        74        0    0.0000
   1144 H         129.6918  206.7049   85.1540 H        74        0    0.0000
   1145 H         131.8736  208.3039   86.5668 H        74        0    0.0000
   1146 H         131.9693  207.2101   83.7415 H        74        0    0.0000
   1147 H         133.2817  207.9289   84.6668 H        74        0    0.0000
   1148 H         130.9229  209.4389   83.9627 H        74        0    0.0000
   1149 H         131.3869  210.2143   85.4658 H        74        0    0.0000
   1150 H         128.7631  209.1099   84.5332 H        74        0    0.0000
   1151 H         127.7035  210.8257   85.6380 H        74        0    0.0000
   1152 H         128.9225  210.9415   86.9013 H        74        0    0.0000
   1153 C         129.4513  211.9878   85.0701 C.3      75        0    0.0000
   1154 C         130.1635  212.9885   85.9914 C.3      75        0    0.0000
   1155 H         130.1999  211.5549   84.3942 H        75        0    0.0000
   1156 H         128.7088  212.4873   84.4367 H        75        0    0.0000
   1157 H         129.4488  213.6673   86.4714 H        75        0    0.0000
   1158 H         130.6492  212.4233   86.7971 H        75        0    0.0000
   1159 C         131.0021  212.1489   82.0257 C.3      76        0    0.0000
   1160 C         130.2484  212.7127   83.2292 C.3      76        0    0.0000
   1161 C         131.0847  213.8891   83.7617 C.3      76        0    0.0000
   1162 C         131.2870  213.8204   85.2811 C.3      76        0    0.0000
   1163 C         132.3904  213.8383   82.9534 C.3      76        0    0.0000
   1164 C         131.9928  213.2356   81.5999 C.3      76        0    0.0000
   1165 C         131.3526  214.2411   80.6255 C.3      76        0    0.0000
   1166 H         131.5582  211.2569   82.3413 H        76        0    0.0000
   1167 H         130.3246  211.8402   81.2234 H        76        0    0.0000
   1168 H         130.0865  211.9306   83.9791 H        76        0    0.0000
   1169 H         129.2598  213.0738   82.9220 H        76        0    0.0000
   1170 H         130.5546  214.8194   83.5129 H        76        0    0.0000
   1171 H         131.3236  214.8299   85.7066 H        76        0    0.0000
   1172 H         132.2543  213.3508   85.4967 H        76        0    0.0000
   1173 H         132.8566  214.8243   82.8643 H        76        0    0.0000
   1174 H         133.1156  213.1749   83.4425 H        76        0    0.0000
   1175 H         132.8652  212.7733   81.1208 H        76        0    0.0000
   1176 H         132.1069  214.8997   80.1815 H        76        0    0.0000
   1177 H         130.6590  214.8870   81.1774 H        76        0    0.0000
   1178 C         127.4296  214.5063   77.7452 C.3      77        0    0.0000
   1179 C         128.8146  213.8669   77.6196 C.3      77        0    0.0000
   1180 C         129.7011  214.5227   78.6934 C.3      77        0    0.0000
   1181 C         130.5532  213.5318   79.4960 C.3      77        0    0.0000
   1182 C         128.7194  215.2980   79.5780 C.3      77        0    0.0000
   1183 C         127.6124  215.7512   78.6202 C.3      77        0    0.0000
   1184 C         128.0081  217.0039   77.8157 C.3      77        0    0.0000
   1185 H         126.9872  214.7155   76.7666 H        77        0    0.0000
   1186 H         126.7607  213.8023   78.2566 H        77        0    0.0000
   1187 H         128.7378  212.7803   77.7365 H        77        0    0.0000
   1188 H         129.2336  214.0568   76.6245 H        77        0    0.0000
   1189 H         130.3617  215.2492   78.1989 H        77        0    0.0000
   1190 H         129.9005  212.7781   79.9523 H        77        0    0.0000
   1191 H         131.2428  212.9958   78.8338 H        77        0    0.0000
   1192 H         129.2039  216.1334   80.0938 H        77        0    0.0000
   1193 H         128.2925  214.6380   80.3443 H        77        0    0.0000
   1194 H         126.6958  215.9562   79.1879 H        77        0    0.0000
   1195 H         127.1682  217.3699   77.2147 H        77        0    0.0000
   1196 H         128.8127  216.7480   77.1161 H        77        0    0.0000
   1197 C         128.8434  218.5371   82.4948 C.3      78        0    0.0000
   1198 C         129.4477  218.6590   81.1042 C.3      78        0    0.0000
   1199 C         128.5220  217.7991   80.2344 C.3      78        0    0.0000
   1200 C         128.5162  218.1477   78.7406 C.3      78        0    0.0000
   1201 C         127.1446  217.8361   80.9280 C.3      78        0    0.0000
   1202 C         127.3408  218.6412   82.2257 C.3      78        0    0.0000
   1203 C         126.5068  218.1544   83.4134 C.3      78        0    0.0000
   1204 H         129.1001  217.5666   82.9366 H        78        0    0.0000
   1205 H         129.1991  219.3243   83.1665 H        78        0    0.0000
   1206 H         129.4463  219.7099   80.7954 H        78        0    0.0000
   1207 H         130.4824  218.3032   81.0758 H        78        0    0.0000
   1208 H         128.8828  216.7624   80.3089 H        78        0    0.0000
   1209 H         127.8863  219.0315   78.5840 H        78        0    0.0000
   1210 H         129.5311  218.4271   78.4340 H        78        0    0.0000
   1211 H         126.8256  216.8086   81.1429 H        78        0    0.0000
   1212 H         126.3632  218.2873   80.3076 H        78        0    0.0000
   1213 H         127.1006  219.6937   82.0160 H        78        0    0.0000
   1214 H         126.7130  217.0959   83.6119 H        78        0    0.0000
   1215 H         126.8016  218.7065   84.3136 H        78        0    0.0000
   1216 H         125.4366  218.2881   83.2556 H        78        0    0.0000
   1217 H         168.5678  122.3428   53.2033 H         0        0    0.0000
@<TRIPOS>BOND
     1     1     2      1
     2     1     6      1
     3     1     8      1
     4     1     9      1
     5     2     3      1
     6     2    10      1
     7     2    11      1
     8     3     4      1
     9     3     5      1
    10     3    12      1
    11     4    13      1
    12     4    14      1
    13     4  1217      H
    14     5     6      1
    15     5    15      1
    16     5    16      1
    17     6     7      1
    18     6    17      1
    19     7    18      1
    20     7    19      1
    21     7    23      1
    22    20    21      1
    23    20    25      1
    24    20    27      1
    25    20    28      1
    26    21    22      1
    27    21    29      1
    28    21    30      1
    29    22    23      1
    30    22    24      1
    31    22    31      1
    32    23    32      1
    33    23    33      1
    34    24    25      1
    35    24    34      1
    36    24    35      1
    37    25    26      1
    38    25    36      1
    39    26    37      1
    40    26    38      1
    41    26    39      1
    42    39    40      1
    43    39    41      1
    44    39    42      1
    45    40    43      1
    46    40    44      1
    47    40    48      1
    48    45    46      1
    49    45    50      1
    50    45    52      1
    51    45    53      1
    52    46    47      1
    53    46    54      1
    54    46    55      1
    55    47    48      1
    56    47    49      1
    57    47    56      1
    58    48    57      1
    59    48    58      1
    60    49    50      1
    61    49    59      1
    62    49    60      1
    63    50    51      1
    64    50    61      1
    65    51    62      1
    66    51    63      1
    67    51    64      1
    68    64    65      1
    69    64    66      1
    70    64    67      1
    71    65    68      1
    72    65    69      1
    73    65    73      1
    74    70    71      1
    75    70    75      1
    76    70    77      1
    77    70    78      1
    78    71    72      1
    79    71    79      1
    80    71    80      1
    81    72    73      1
    82    72    74      1
    83    72    81      1
    84    73    82      1
    85    73    83      1
    86    74    75      1
    87    74    84      1
    88    74    85      1
    89    75    76      1
    90    75    86      1
    91    76    87      1
    92    76    88      1
    93    76    92      1
    94    89    90      1
    95    89    94      1
    96    89    96      1
    97    89    97      1
    98    90    91      1
    99    90    98      1
   100    90    99      1
   101    91    92      1
   102    91    93      1
   103    91   100      1
   104    92   101      1
   105    92   102      1
   106    93    94      1
   107    93   103      1
   108    93   104      1
   109    94    95      1
   110    94   105      1
   111    95   106      1
   112    95   107      1
   113    95   108      1
   114   108   109      1
   115   108   110      1
   116   108   111      1
   117   109   112      1
   118   109   113      1
   119   109   114      1
   120   114   115      1
   121   114   116      1
   122   114   117      1
   123   115   118      1
   124   115   119      1
   125   115   120      1
   126   120   121      1
   127   120   122      1
   128   120   123      1
   129   121   124      1
   130   121   125      1
   131   121   126      1
   132   126   127      1
   133   126   128      1
   134   126   129      1
   135   127   130      1
   136   127   131      1
   137   127   135      1
   138   132   133      1
   139   132   137      1
   140   132   139      1
   141   132   140      1
   142   133   134      1
   143   133   141      1
   144   133   142      1
   145   134   135      1
   146   134   136      1
   147   134   143      1
   148   135   144      1
   149   135   145      1
   150   136   137      1
   151   136   146      1
   152   136   147      1
   153   137   138      1
   154   137   148      1
   155   138   149      1
   156   138   150      1
   157   138   154      1
   158   151   152      1
   159   151   156      1
   160   151   158      1
   161   151   159      1
   162   152   153      1
   163   152   160      1
   164   152   161      1
   165   153   154      1
   166   153   155      1
   167   153   162      1
   168   154   163      1
   169   154   164      1
   170   155   156      1
   171   155   165      1
   172   155   166      1
   173   156   157      1
   174   156   167      1
   175   157   168      1
   176   157   169      1
   177   157   170      1
   178   170   171      1
   179   170   172      1
   180   170   173      1
   181   171   174      1
   182   171   175      1
   183   171   179      1
   184   176   177      1
   185   176   181      1
   186   176   183      1
   187   176   184      1
   188   177   178      1
   189   177   185      1
   190   177   186      1
   191   178   179      1
   192   178   180      1
   193   178   187      1
   194   179   188      1
   195   179   189      1
   196   180   181      1
   197   180   190      1
   198   180   191      1
   199   181   182      1
   200   181   192      1
   201   182   193      1
   202   182   194      1
   203   182   195      1
   204   195   196      1
   205   195   197      1
   206   195   198      1
   207   196   199      1
   208   196   200      1
   209   196   204      1
   210   201   202      1
   211   201   206      1
   212   201   208      1
   213   201   209      1
   214   202   203      1
   215   202   210      1
   216   202   211      1
   217   203   204      1
   218   203   205      1
   219   203   212      1
   220   204   213      1
   221   204   214      1
   222   205   206      1
   223   205   215      1
   224   205   216      1
   225   206   207      1
   226   206   217      1
   227   207   218      1
   228   207   219      1
   229   207   223      1
   230   220   221      1
   231   220   225      1
   232   220   227      1
   233   220   228      1
   234   221   222      1
   235   221   229      1
   236   221   230      1
   237   222   223      1
   238   222   224      1
   239   222   231      1
   240   223   232      1
   241   223   233      1
   242   224   225      1
   243   224   234      1
   244   224   235      1
   245   225   226      1
   246   225   236      1
   247   226   237      1
   248   226   238      1
   249   226   242      1
   250   239   240      1
   251   239   244      1
   252   239   246      1
   253   239   247      1
   254   240   241      1
   255   240   248      1
   256   240   249      1
   257   241   242      1
   258   241   243      1
   259   241   250      1
   260   242   251      1
   261   242   252      1
   262   243   244      1
   263   243   253      1
   264   243   254      1
   265   244   245      1
   266   244   255      1
   267   245   256      1
   268   245   257      1
   269   245   261      1
   270   258   259      1
   271   258   263      1
   272   258   265      1
   273   258   266      1
   274   259   260      1
   275   259   267      1
   276   259   268      1
   277   260   261      1
   278   260   262      1
   279   260   269      1
   280   261   270      1
   281   261   271      1
   282   262   263      1
   283   262   272      1
   284   262   273      1
   285   263   264      1
   286   263   274      1
   287   264   275      1
   288   264   276      1
   289   264   277      1
   290   277   278      1
   291   277   279      1
   292   277   280      1
   293   278   281      1
   294   278   282      1
   295   278   286      1
   296   283   284      1
   297   283   288      1
   298   283   290      1
   299   283   291      1
   300   284   285      1
   301   284   292      1
   302   284   293      1
   303   285   286      1
   304   285   287      1
   305   285   294      1
   306   286   295      1
   307   286   296      1
   308   287   288      1
   309   287   297      1
   310   287   298      1
   311   288   289      1
   312   288   299      1
   313   289   300      1
   314   289   301      1
   315   289   305      1
   316   302   303      1
   317   302   307      1
   318   302   309      1
   319   302   310      1
   320   303   304      1
   321   303   311      1
   322   303   312      1
   323   304   305      1
   324   304   306      1
   325   304   313      1
   326   305   314      1
   327   305   315      1
   328   306   307      1
   329   306   316      1
   330   306   317      1
   331   307   308      1
   332   307   318      1
   333   308   319      1
   334   308   320      1
   335   308   324      1
   336   321   322      1
   337   321   326      1
   338   321   328      1
   339   321   329      1
   340   322   323      1
   341   322   330      1
   342   322   331      1
   343   323   324      1
   344   323   325      1
   345   323   332      1
   346   324   333      1
   347   324   334      1
   348   325   326      1
   349   325   335      1
   350   325   336      1
   351   326   327      1
   352   326   337      1
   353   327   338      1
   354   327   339      1
   355   327   343      1
   356   340   341      1
   357   340   345      1
   358   340   347      1
   359   340   348      1
   360   341   342      1
   361   341   349      1
   362   341   350      1
   363   342   343      1
   364   342   344      1
   365   342   351      1
   366   343   352      1
   367   343   353      1
   368   344   345      1
   369   344   354      1
   370   344   355      1
   371   345   346      1
   372   345   356      1
   373   346   357      1
   374   346   358      1
   375   346   362      1
   376   359   360      1
   377   359   364      1
   378   359   366      1
   379   359   367      1
   380   360   361      1
   381   360   368      1
   382   360   369      1
   383   361   362      1
   384   361   363      1
   385   361   370      1
   386   362   371      1
   387   362   372      1
   388   363   364      1
   389   363   373      1
   390   363   374      1
   391   364   365      1
   392   364   375      1
   393   365   376      1
   394   365   377      1
   395   365   381      1
   396   378   379      1
   397   378   383      1
   398   378   385      1
   399   378   386      1
   400   379   380      1
   401   379   387      1
   402   379   388      1
   403   380   381      1
   404   380   382      1
   405   380   389      1
   406   381   390      1
   407   381   391      1
   408   382   383      1
   409   382   392      1
   410   382   393      1
   411   383   384      1
   412   383   394      1
   413   384   395      1
   414   384   396      1
   415   384   397      1
   416   397   398      1
   417   397   399      1
   418   397   400      1
   419   398   401      1
   420   398   402      1
   421   398   406      1
   422   403   404      1
   423   403   408      1
   424   403   410      1
   425   403   411      1
   426   404   405      1
   427   404   412      1
   428   404   413      1
   429   405   406      1
   430   405   407      1
   431   405   414      1
   432   406   415      1
   433   406   416      1
   434   407   408      1
   435   407   417      1
   436   407   418      1
   437   408   409      1
   438   408   419      1
   439   409   420      1
   440   409   421      1
   441   409   425      1
   442   422   423      1
   443   422   427      1
   444   422   429      1
   445   422   430      1
   446   423   424      1
   447   423   431      1
   448   423   432      1
   449   424   425      1
   450   424   426      1
   451   424   433      1
   452   425   434      1
   453   425   435      1
   454   426   427      1
   455   426   436      1
   456   426   437      1
   457   427   428      1
   458   427   438      1
   459   428   439      1
   460   428   440      1
   461   428   444      1
   462   441   442      1
   463   441   446      1
   464   441   448      1
   465   441   449      1
   466   442   443      1
   467   442   450      1
   468   442   451      1
   469   443   444      1
   470   443   445      1
   471   443   452      1
   472   444   453      1
   473   444   454      1
   474   445   446      1
   475   445   455      1
   476   445   456      1
   477   446   447      1
   478   446   457      1
   479   447   458      1
   480   447   459      1
   481   447   463      1
   482   460   461      1
   483   460   465      1
   484   460   467      1
   485   460   468      1
   486   461   462      1
   487   461   469      1
   488   461   470      1
   489   462   463      1
   490   462   464      1
   491   462   471      1
   492   463   472      1
   493   463   473      1
   494   464   465      1
   495   464   474      1
   496   464   475      1
   497   465   466      1
   498   465   476      1
   499   466   477      1
   500   466   478      1
   501   466   479      1
   502   479   480      1
   503   479   481      1
   504   479   482      1
   505   480   483      1
   506   480   484      1
   507   480   488      1
   508   485   486      1
   509   485   490      1
   510   485   492      1
   511   485   493      1
   512   486   487      1
   513   486   494      1
   514   486   495      1
   515   487   488      1
   516   487   489      1
   517   487   496      1
   518   488   497      1
   519   488   498      1
   520   489   490      1
   521   489   499      1
   522   489   500      1
   523   490   491      1
   524   490   501      1
   525   491   502      1
   526   491   503      1
   527   491   507      1
   528   504   505      1
   529   504   509      1
   530   504   511      1
   531   504   512      1
   532   505   506      1
   533   505   513      1
   534   505   514      1
   535   506   507      1
   536   506   508      1
   537   506   515      1
   538   507   516      1
   539   507   517      1
   540   508   509      1
   541   508   518      1
   542   508   519      1
   543   509   510      1
   544   509   520      1
   545   510   521      1
   546   510   522      1
   547   510   526      1
   548   523   524      1
   549   523   528      1
   550   523   530      1
   551   523   531      1
   552   524   525      1
   553   524   532      1
   554   524   533      1
   555   525   526      1
   556   525   527      1
   557   525   534      1
   558   526   535      1
   559   526   536      1
   560   527   528      1
   561   527   537      1
   562   527   538      1
   563   528   529      1
   564   528   539      1
   565   529   540      1
   566   529   541      1
   567   529   545      1
   568   542   543      1
   569   542   547      1
   570   542   549      1
   571   542   550      1
   572   543   544      1
   573   543   551      1
   574   543   552      1
   575   544   545      1
   576   544   546      1
   577   544   553      1
   578   545   554      1
   579   545   555      1
   580   546   547      1
   581   546   556      1
   582   546   557      1
   583   547   548      1
   584   547   558      1
   585   548   559      1
   586   548   560      1
   587   548   564      1
   588   561   562      1
   589   561   566      1
   590   561   568      1
   591   561   569      1
   592   562   563      1
   593   562   570      1
   594   562   571      1
   595   563   564      1
   596   563   565      1
   597   563   572      1
   598   564   573      1
   599   564   574      1
   600   565   566      1
   601   565   575      1
   602   565   576      1
   603   566   567      1
   604   566   577      1
   605   567   578      1
   606   567   579      1
   607   567   583      1
   608   580   581      1
   609   580   585      1
   610   580   587      1
   611   580   588      1
   612   581   582      1
   613   581   589      1
   614   581   590      1
   615   582   583      1
   616   582   584      1
   617   582   591      1
   618   583   592      1
   619   583   593      1
   620   584   585      1
   621   584   594      1
   622   584   595      1
   623   585   586      1
   624   585   596      1
   625   586   597      1
   626   586   598      1
   627   586   602      1
   628   599   600      1
   629   599   604      1
   630   599   606      1
   631   599   607      1
   632   600   601      1
   633   600   608      1
   634   600   609      1
   635   601   602      1
   636   601   603      1
   637   601   610      1
   638   602   611      1
   639   602   612      1
   640   603   604      1
   641   603   613      1
   642   603   614      1
   643   604   605      1
   644   604   615      1
   645   605   616      1
   646   605   617      1
   647   605   621      1
   648   618   619      1
   649   618   623      1
   650   618   625      1
   651   618   626      1
   652   619   620      1
   653   619   627      1
   654   619   628      1
   655   620   621      1
   656   620   622      1
   657   620   629      1
   658   621   630      1
   659   621   631      1
   660   622   623      1
   661   622   632      1
   662   622   633      1
   663   623   624      1
   664   623   634      1
   665   624   635      1
   666   624   636      1
   667   624   640      1
   668   637   638      1
   669   637   642      1
   670   637   644      1
   671   637   645      1
   672   638   639      1
   673   638   646      1
   674   638   647      1
   675   639   640      1
   676   639   641      1
   677   639   648      1
   678   640   649      1
   679   640   650      1
   680   641   642      1
   681   641   651      1
   682   641   652      1
   683   642   643      1
   684   642   653      1
   685   643   654      1
   686   643   655      1
   687   643   659      1
   688   656   657      1
   689   656   661      1
   690   656   663      1
   691   656   664      1
   692   657   658      1
   693   657   665      1
   694   657   666      1
   695   658   659      1
   696   658   660      1
   697   658   667      1
   698   659   668      1
   699   659   669      1
   700   660   661      1
   701   660   670      1
   702   660   671      1
   703   661   662      1
   704   661   672      1
   705   662   673      1
   706   662   674      1
   707   662   675      1
   708   675   676      1
   709   675   677      1
   710   675   678      1
   711   676   679      1
   712   676   680      1
   713   676   684      1
   714   681   682      1
   715   681   686      1
   716   681   688      1
   717   681   689      1
   718   682   683      1
   719   682   690      1
   720   682   691      1
   721   683   684      1
   722   683   685      1
   723   683   692      1
   724   684   693      1
   725   684   694      1
   726   685   686      1
   727   685   695      1
   728   685   696      1
   729   686   687      1
   730   686   697      1
   731   687   698      1
   732   687   699      1
   733   687   703      1
   734   700   701      1
   735   700   705      1
   736   700   707      1
   737   700   708      1
   738   701   702      1
   739   701   709      1
   740   701   710      1
   741   702   703      1
   742   702   704      1
   743   702   711      1
   744   703   712      1
   745   703   713      1
   746   704   705      1
   747   704   714      1
   748   704   715      1
   749   705   706      1
   750   705   716      1
   751   706   717      1
   752   706   718      1
   753   706   722      1
   754   719   720      1
   755   719   724      1
   756   719   726      1
   757   719   727      1
   758   720   721      1
   759   720   728      1
   760   720   729      1
   761   721   722      1
   762   721   723      1
   763   721   730      1
   764   722   731      1
   765   722   732      1
   766   723   724      1
   767   723   733      1
   768   723   734      1
   769   724   725      1
   770   724   735      1
   771   725   736      1
   772   725   737      1
   773   725   741      1
   774   738   739      1
   775   738   743      1
   776   738   745      1
   777   738   746      1
   778   739   740      1
   779   739   747      1
   780   739   748      1
   781   740   741      1
   782   740   742      1
   783   740   749      1
   784   741   750      1
   785   741   751      1
   786   742   743      1
   787   742   752      1
   788   742   753      1
   789   743   744      1
   790   743   754      1
   791   744   755      1
   792   744   756      1
   793   744   760      1
   794   757   758      1
   795   757   762      1
   796   757   764      1
   797   757   765      1
   798   758   759      1
   799   758   766      1
   800   758   767      1
   801   759   760      1
   802   759   761      1
   803   759   768      1
   804   760   769      1
   805   760   770      1
   806   761   762      1
   807   761   771      1
   808   761   772      1
   809   762   763      1
   810   762   773      1
   811   763   774      1
   812   763   775      1
   813   763   779      1
   814   776   777      1
   815   776   781      1
   816   776   783      1
   817   776   784      1
   818   777   778      1
   819   777   785      1
   820   777   786      1
   821   778   779      1
   822   778   780      1
   823   778   787      1
   824   779   788      1
   825   779   789      1
   826   780   781      1
   827   780   790      1
   828   780   791      1
   829   781   782      1
   830   781   792      1
   831   782   793      1
   832   782   794      1
   833   782   795      1
   834   795   796      1
   835   795   797      1
   836   795   798      1
   837   796   799      1
   838   796   800      1
   839   796   804      1
   840   801   802      1
   841   801   806      1
   842   801   808      1
   843   801   809      1
   844   802   803      1
   845   802   810      1
   846   802   811      1
   847   803   804      1
   848   803   805      1
   849   803   812      1
   850   804   813      1
   851   804   814      1
   852   805   806      1
   853   805   815      1
   854   805   816      1
   855   806   807      1
   856   806   817      1
   857   807   818      1
   858   807   819      1
   859   807   823      1
   860   820   821      1
   861   820   825      1
   862   820   827      1
   863   820   828      1
   864   821   822      1
   865   821   829      1
   866   821   830      1
   867   822   823      1
   868   822   824      1
   869   822   831      1
   870   823   832      1
   871   823   833      1
   872   824   825      1
   873   824   834      1
   874   824   835      1
   875   825   826      1
   876   825   836      1
   877   826   837      1
   878   826   838      1
   879   826   839      1
   880   839   840      1
   881   839   841      1
   882   839   842      1
   883   840   843      1
   884   840   844      1
   885   840   848      1
   886   845   846      1
   887   845   850      1
   888   845   852      1
   889   845   853      1
   890   846   847      1
   891   846   854      1
   892   846   855      1
   893   847   848      1
   894   847   849      1
   895   847   856      1
   896   848   857      1
   897   848   858      1
   898   849   850      1
   899   849   859      1
   900   849   860      1
   901   850   851      1
   902   850   861      1
   903   851   862      1
   904   851   863      1
   905   851   867      1
   906   864   865      1
   907   864   869      1
   908   864   871      1
   909   864   872      1
   910   865   866      1
   911   865   873      1
   912   865   874      1
   913   866   867      1
   914   866   868      1
   915   866   875      1
   916   867   876      1
   917   867   877      1
   918   868   869      1
   919   868   878      1
   920   868   879      1
   921   869   870      1
   922   869   880      1
   923   870   881      1
   924   870   882      1
   925   870   883      1
   926   883   884      1
   927   883   885      1
   928   883   886      1
   929   884   887      1
   930   884   888      1
   931   884   892      1
   932   889   890      1
   933   889   894      1
   934   889   896      1
   935   889   897      1
   936   890   891      1
   937   890   898      1
   938   890   899      1
   939   891   892      1
   940   891   893      1
   941   891   900      1
   942   892   901      1
   943   892   902      1
   944   893   894      1
   945   893   903      1
   946   893   904      1
   947   894   895      1
   948   894   905      1
   949   895   906      1
   950   895   907      1
   951   895   908      1
   952   908   909      1
   953   908   910      1
   954   908   911      1
   955   909   912      1
   956   909   913      1
   957   909   917      1
   958   914   915      1
   959   914   919      1
   960   914   921      1
   961   914   922      1
   962   915   916      1
   963   915   923      1
   964   915   924      1
   965   916   917      1
   966   916   918      1
   967   916   925      1
   968   917   926      1
   969   917   927      1
   970   918   919      1
   971   918   928      1
   972   918   929      1
   973   919   920      1
   974   919   930      1
   975   920   931      1
   976   920   932      1
   977   920   936      1
   978   933   934      1
   979   933   938      1
   980   933   940      1
   981   933   941      1
   982   934   935      1
   983   934   942      1
   984   934   943      1
   985   935   936      1
   986   935   937      1
   987   935   944      1
   988   936   945      1
   989   936   946      1
   990   937   938      1
   991   937   947      1
   992   937   948      1
   993   938   939      1
   994   938   949      1
   995   939   950      1
   996   939   951      1
   997   939   955      1
   998   952   953      1
   999   952   957      1
  1000   952   959      1
  1001   952   960      1
  1002   953   954      1
  1003   953   961      1
  1004   953   962      1
  1005   954   955      1
  1006   954   956      1
  1007   954   963      1
  1008   955   964      1
  1009   955   965      1
  1010   956   957      1
  1011   956   966      1
  1012   956   967      1
  1013   957   958      1
  1014   957   968      1
  1015   958   969      1
  1016   958   970      1
  1017   958   971      1
  1018   971   972      1
  1019   971   973      1
  1020   971   974      1
  1021   972   975      1
  1022   972   976      1
  1023   972   980      1
  1024   977   978      1
  1025   977   982      1
  1026   977   984      1
  1027   977   985      1
  1028   978   979      1
  1029   978   986      1
  1030   978   987      1
  1031   979   980      1
  1032   979   981      1
  1033   979   988      1
  1034   980   989      1
  1035   980   990      1
  1036   981   982      1
  1037   981   991      1
  1038   981   992      1
  1039   982   983      1
  1040   982   993      1
  1041   983   994      1
  1042   983   995      1
  1043   983   999      1
  1044   996   997      1
  1045   996  1001      1
  1046   996  1003      1
  1047   996  1004      1
  1048   997   998      1
  1049   997  1005      1
  1050   997  1006      1
  1051   998   999      1
  1052   998  1000      1
  1053   998  1007      1
  1054   999  1008      1
  1055   999  1009      1
  1056  1000  1001      1
  1057  1000  1010      1
  1058  1000  1011      1
  1059  1001  1002      1
  1060  1001  1012      1
  1061  1002  1013      1
  1062  1002  1014      1
  1063  1002  1015      1
  1064  1015  1016      1
  1065  1015  1017      1
  1066  1015  1018      1
  1067  1016  1019      1
  1068  1016  1020      1
  1069  1016  1024      1
  1070  1021  1022      1
  1071  1021  1026      1
  1072  1021  1028      1
  1073  1021  1029      1
  1074  1022  1023      1
  1075  1022  1030      1
  1076  1022  1031      1
  1077  1023  1024      1
  1078  1023  1025      1
  1079  1023  1032      1
  1080  1024  1033      1
  1081  1024  1034      1
  1082  1025  1026      1
  1083  1025  1035      1
  1084  1025  1036      1
  1085  1026  1027      1
  1086  1026  1037      1
  1087  1027  1038      1
  1088  1027  1039      1
  1089  1027  1043      1
  1090  1040  1041      1
  1091  1040  1045      1
  1092  1040  1047      1
  1093  1040  1048      1
  1094  1041  1042      1
  1095  1041  1049      1
  1096  1041  1050      1
  1097  1042  1043      1
  1098  1042  1044      1
  1099  1042  1051      1
  1100  1043  1052      1
  1101  1043  1053      1
  1102  1044  1045      1
  1103  1044  1054      1
  1104  1044  1055      1
  1105  1045  1046      1
  1106  1045  1056      1
  1107  1046  1057      1
  1108  1046  1058      1
  1109  1046  1059      1
  1110  1059  1060      1
  1111  1059  1061      1
  1112  1059  1062      1
  1113  1060  1063      1
  1114  1060  1064      1
  1115  1060  1068      1
  1116  1065  1066      1
  1117  1065  1070      1
  1118  1065  1072      1
  1119  1065  1073      1
  1120  1066  1067      1
  1121  1066  1074      1
  1122  1066  1075      1
  1123  1067  1068      1
  1124  1067  1069      1
  1125  1067  1076      1
  1126  1068  1077      1
  1127  1068  1078      1
  1128  1069  1070      1
  1129  1069  1079      1
  1130  1069  1080      1
  1131  1070  1071      1
  1132  1070  1081      1
  1133  1071  1082      1
  1134  1071  1083      1
  1135  1071  1087      1
  1136  1084  1085      1
  1137  1084  1089      1
  1138  1084  1091      1
  1139  1084  1092      1
  1140  1085  1086      1
  1141  1085  1093      1
  1142  1085  1094      1
  1143  1086  1087      1
  1144  1086  1088      1
  1145  1086  1095      1
  1146  1087  1096      1
  1147  1087  1097      1
  1148  1088  1089      1
  1149  1088  1098      1
  1150  1088  1099      1
  1151  1089  1090      1
  1152  1089  1100      1
  1153  1090  1101      1
  1154  1090  1102      1
  1155  1090  1103      1
  1156  1103  1104      1
  1157  1103  1105      1
  1158  1103  1106      1
  1159  1104  1107      1
  1160  1104  1108      1
  1161  1104  1109      1
  1162  1109  1110      1
  1163  1109  1111      1
  1164  1109  1112      1
  1165  1110  1113      1
  1166  1110  1114      1
  1167  1110  1118      1
  1168  1115  1116      1
  1169  1115  1120      1
  1170  1115  1122      1
  1171  1115  1123      1
  1172  1116  1117      1
  1173  1116  1124      1
  1174  1116  1125      1
  1175  1117  1118      1
  1176  1117  1119      1
  1177  1117  1126      1
  1178  1118  1127      1
  1179  1118  1128      1
  1180  1119  1120      1
  1181  1119  1129      1
  1182  1119  1130      1
  1183  1120  1121      1
  1184  1120  1131      1
  1185  1121  1132      1
  1186  1121  1133      1
  1187  1121  1137      1
  1188  1134  1135      1
  1189  1134  1139      1
  1190  1134  1141      1
  1191  1134  1142      1
  1192  1135  1136      1
  1193  1135  1143      1
  1194  1135  1144      1
  1195  1136  1137      1
  1196  1136  1138      1
  1197  1136  1145      1
  1198  1137  1146      1
  1199  1137  1147      1
  1200  1138  1139      1
  1201  1138  1148      1
  1202  1138  1149      1
  1203  1139  1140      1
  1204  1139  1150      1
  1205  1140  1151      1
  1206  1140  1152      1
  1207  1140  1153      1
  1208  1153  1154      1
  1209  1153  1155      1
  1210  1153  1156      1
  1211  1154  1157      1
  1212  1154  1158      1
  1213  1154  1162      1
  1214  1159  1160      1
  1215  1159  1164      1
  1216  1159  1166      1
  1217  1159  1167      1
  1218  1160  1161      1
  1219  1160  1168      1
  1220  1160  1169      1
  1221  1161  1162      1
  1222  1161  1163      1
  1223  1161  1170      1
  1224  1162  1171      1
  1225  1162  1172      1
  1226  1163  1164      1
  1227  1163  1173      1
  1228  1163  1174      1
  1229  1164  1165      1
  1230  1164  1175      1
  1231  1165  1176      1
  1232  1165  1177      1
  1233  1165  1181      1
  1234  1178  1179      1
  1235  1178  1183      1
  1236  1178  1185      1
  1237  1178  1186      1
  1238  1179  1180      1
  1239  1179  1187      1
  1240  1179  1188      1
  1241  1180  1181      1
  1242  1180  1182      1
  1243  1180  1189      1
  1244  1181  1190      1
  1245  1181  1191      1
  1246  1182  1183      1
  1247  1182  1192      1
  1248  1182  1193      1
  1249  1183  1184      1
  1250  1183  1194      1
  1251  1184  1195      1
  1252  1184  1196      1
  1253  1184  1200      1
  1254  1197  1198      1
  1255  1197  1202      1
  1256  1197  1204      1
  1257  1197  1205      1
  1258  1198  1199      1
  1259  1198  1206      1
  1260  1198  1207      1
  1261  1199  1200      1
  1262  1199  1201      1
  1263  1199  1208      1
  1264  1200  1209      1
  1265  1200  1210      1
  1266  1201  1202      1
  1267  1201  1211      1
  1268  1201  1212      1
  1269  1202  1203      1
  1270  1202  1213      1
  1271  1203  1214      1
  1272  1203  1215      1
  1273  1203  1216      H
