###
### Created by PolyChef-cpp17 on Wed Feb 26 21:14:13 2025
###

@<TRIPOS>MOLECULE
NO_INFO
953 997 1 0 0
SMALL
USER_CHARGES


@<TRIPOS>ATOM
      1 C         150.1667  249.0261  153.1674 C.3       0        0    0.0000
      2 C         151.3916  249.8366  152.7673 C.3       0        0    0.0000
      3 C         152.4500  248.7567  152.5195 C.3       0        0    0.0000
      4 C         153.8992  249.2514  152.4880 C.3       0        0    0.0000
      5 C         152.1481  247.6492  153.5480 C.3       0        0    0.0000
      6 C         150.7497  247.9692  154.1113 C.3       0        0    0.0000
      7 C         149.8513  246.7572  154.3764 C.3       0        0    0.0000
      8 H         149.4101  249.6447  153.6599 H         0        0    0.0000
      9 H         149.7126  248.5778  152.2769 H         0        0    0.0000
     10 H         151.2068  250.4436  151.8756 H         0        0    0.0000
     11 H         151.6731  250.5096  153.5847 H         0        0    0.0000
     12 H         152.2438  248.3301  151.5263 H         0        0    0.0000
     13 H         154.3074  249.2288  153.5054 H         0        0    0.0000
     14 H         154.5022  248.5568  151.8912 H         0        0    0.0000
     15 H         152.8746  247.6194  154.3672 H         0        0    0.0000
     16 H         152.1958  246.6710  153.0573 H         0        0    0.0000
     17 H         150.9056  248.4610  155.0834 H         0        0    0.0000
     18 H         149.1665  246.9924  155.1997 H         0        0    0.0000
     19 H         149.2294  246.5720  153.4926 H         0        0    0.0000
     20 C         152.6892  244.6025  157.6918 C.3       1        0    0.0000
     21 C         151.4780  245.3728  157.1603 C.3       1        0    0.0000
     22 C         151.7860  245.7188  155.6924 C.3       1        0    0.0000
     23 C         150.6251  245.4509  154.7266 C.3       1        0    0.0000
     24 C         153.0282  244.8873  155.3565 C.3       1        0    0.0000
     25 C         153.8123  244.8169  156.6713 C.3       1        0    0.0000
     26 C         154.6339  246.0931  156.9344 C.3       1        0    0.0000
     27 H         152.9523  244.9084  158.7088 H         1        0    0.0000
     28 H         152.4387  243.5346  157.7319 H         1        0    0.0000
     29 H         150.5706  244.7694  157.2740 H         1        0    0.0000
     30 H         151.3288  246.2936  157.7362 H         1        0    0.0000
     31 H         152.0621  246.7816  155.6392 H         1        0    0.0000
     32 H         151.0175  245.0193  153.7981 H         1        0    0.0000
     33 H         149.9349  244.7137  155.1527 H         1        0    0.0000
     34 H         153.6077  245.3279  154.5388 H         1        0    0.0000
     35 H         152.7380  243.8743  155.0489 H         1        0    0.0000
     36 H         154.4826  243.9482  156.6538 H         1        0    0.0000
     37 H         155.1857  246.0210  157.8782 H         1        0    0.0000
     38 H         153.9559  246.9499  157.0266 H         1        0    0.0000
     39 C         155.6310  246.3872  155.7763 C.3       2        0    0.0000
     40 C         157.0722  246.6382  156.2425 C.3       2        0    0.0000
     41 H         155.6324  245.5023  155.1271 H         2        0    0.0000
     42 H         155.2572  247.2204  155.1696 H         2        0    0.0000
     43 H         157.5572  247.4144  155.6389 H         2        0    0.0000
     44 H         157.0358  247.0181  157.2716 H         2        0    0.0000
     45 C         159.2444  242.7536  153.9438 C.3       3        0    0.0000
     46 C         159.4547  244.1502  154.5339 C.3       3        0    0.0000
     47 C         158.0583  244.6954  154.8830 C.3       3        0    0.0000
     48 C         157.9673  245.3511  156.2665 C.3       3        0    0.0000
     49 C         157.1307  243.4834  154.7496 C.3       3        0    0.0000
     50 C         157.7492  242.6462  153.6249 C.3       3        0    0.0000
     51 C         157.3883  243.1827  152.2267 C.3       3        0    0.0000
     52 H         159.8938  242.5736  153.0818 H         3        0    0.0000
     53 H         159.5045  242.0061  154.7042 H         3        0    0.0000
     54 H         160.1191  244.0936  155.4032 H         3        0    0.0000
     55 H         159.9373  244.8058  153.7997 H         3        0    0.0000
     56 H         157.7730  245.4296  154.1159 H         3        0    0.0000
     57 H         157.5334  244.6386  156.9781 H         3        0    0.0000
     58 H         158.9677  245.6017  156.6379 H         3        0    0.0000
     59 H         156.0974  243.7789  154.5408 H         3        0    0.0000
     60 H         157.1274  242.9008  155.6799 H         3        0    0.0000
     61 H         157.4140  241.6051  153.7143 H         3        0    0.0000
     62 H         158.1482  243.8833  151.8633 H         3        0    0.0000
     63 H         156.4442  243.7375  152.2823 H         3        0    0.0000
     64 C         157.2134  242.0317  151.1939 C.3       4        0    0.0000
     65 C         155.9395  242.1441  150.3443 C.3       4        0    0.0000
     66 H         158.0778  242.0775  150.5191 H         4        0    0.0000
     67 H         157.2669  241.0641  151.7065 H         4        0    0.0000
     68 H         155.5179  243.1552  150.3892 H         4        0    0.0000
     69 H         156.2121  241.9642  149.2964 H         4        0    0.0000
     70 C         153.0367  239.1470  152.6492 C.3       5        0    0.0000
     71 C         153.3055  240.6538  152.6889 C.3       5        0    0.0000
     72 C         154.7544  240.8513  152.2301 C.3       5        0    0.0000
     73 C         154.8343  241.0941  150.7111 C.3       5        0    0.0000
     74 C         155.4206  239.5525  152.7017 C.3       5        0    0.0000
     75 C         154.3901  238.4633  152.3933 C.3       5        0    0.0000
     76 C         154.6238  237.1902  153.2144 C.3       5        0    0.0000
     77 H         152.5784  238.8280  153.5923 H         5        0    0.0000
     78 H         152.3315  238.9023  151.8467 H         5        0    0.0000
     79 H         153.2023  241.0041  153.7237 H         5        0    0.0000
     80 H         152.5821  241.2140  152.0878 H         5        0    0.0000
     81 H         155.1958  241.7104  152.7516 H         5        0    0.0000
     82 H         153.8684  241.4730  150.3555 H         5        0    0.0000
     83 H         155.0224  240.1613  150.1690 H         5        0    0.0000
     84 H         155.6021  239.6091  153.7830 H         5        0    0.0000
     85 H         156.3816  239.3528  152.2185 H         5        0    0.0000
     86 H         154.4563  238.2162  151.3244 H         5        0    0.0000
     87 H         153.8430  236.4507  153.0019 H         5        0    0.0000
     88 H         154.5542  237.4280  154.2825 H         5        0    0.0000
     89 C         155.7177  232.8507  152.3645 C.3       6        0    0.0000
     90 C         155.0847  234.2369  152.5117 C.3       6        0    0.0000
     91 C         156.0851  235.0848  153.3082 C.3       6        0    0.0000
     92 C         156.0210  236.5675  152.9314 C.3       6        0    0.0000
     93 C         157.4279  234.4083  153.0127 C.3       6        0    0.0000
     94 C         157.0742  232.9188  153.0783 C.3       6        0    0.0000
     95 C         158.1123  231.9881  152.4453 C.3       6        0    0.0000
     96 H         155.0828  232.0724  152.8012 H         6        0    0.0000
     97 H         155.8358  232.6145  151.3002 H         6        0    0.0000
     98 H         154.1188  234.1832  153.0254 H         6        0    0.0000
     99 H         154.9008  234.6616  151.5175 H         6        0    0.0000
    100 H         155.8601  234.9652  154.3781 H         6        0    0.0000
    101 H         156.2428  236.6795  151.8634 H         6        0    0.0000
    102 H         156.7886  237.1314  153.4744 H         6        0    0.0000
    103 H         158.1929  234.6797  153.7470 H         6        0    0.0000
    104 H         157.7944  234.6816  152.0153 H         6        0    0.0000
    105 H         156.9216  232.6406  154.1313 H         6        0    0.0000
    106 H         158.4539  232.3955  151.4865 H         6        0    0.0000
    107 H         157.6459  231.0195  152.2290 H         6        0    0.0000
    108 C         159.3364  231.7510  153.3718 C.3       7        0    0.0000
    109 C         159.8568  230.3065  153.3606 C.3       7        0    0.0000
    110 H         160.1396  232.4051  153.0092 H         7        0    0.0000
    111 H         159.0987  232.0815  154.3898 H         7        0    0.0000
    112 H         159.0625  229.5984  153.0968 H         7        0    0.0000
    113 H         160.6215  230.2263  152.5774 H         7        0    0.0000
    114 C         160.5354  229.8634  154.7029 C.3       8        0    0.0000
    115 C         160.9861  228.3957  154.7193 C.3       8        0    0.0000
    116 H         159.7883  229.9990  155.4954 H         8        0    0.0000
    117 H         161.3668  230.5386  154.9371 H         8        0    0.0000
    118 H         162.0274  228.3632  155.0644 H         8        0    0.0000
    119 H         160.4003  227.8065  155.4345 H         8        0    0.0000
    120 C         160.9536  227.7036  153.3127 C.3       9        0    0.0000
    121 C         161.5136  226.2740  153.3077 C.3       9        0    0.0000
    122 H         159.9007  227.6579  153.0063 H         9        0    0.0000
    123 H         161.4666  228.3354  152.5781 H         9        0    0.0000
    124 H         162.0893  226.0679  154.2177 H         9        0    0.0000
    125 H         160.6663  225.5764  153.3080 H         9        0    0.0000
    126 C         162.3799  225.9334  152.0459 C.3      10        0    0.0000
    127 C         163.0660  224.5614  152.1120 C.3      10        0    0.0000
    128 H         163.1609  226.7018  151.9811 H        10        0    0.0000
    129 H         161.7687  226.0306  151.1410 H        10        0    0.0000
    130 H         162.8055  224.0063  151.2018 H        10        0    0.0000
    131 H         164.1578  224.6612  152.1166 H        10        0    0.0000
    132 C         165.2737  221.2682  154.5669 C.3      11        0    0.0000
    133 C         164.2586  222.3702  154.8360 C.3      11        0    0.0000
    134 C         163.4502  222.4152  153.5351 C.3      11        0    0.0000
    135 C         162.6110  223.6794  153.3260 C.3      11        0    0.0000
    136 C         164.4624  222.0971  152.4172 C.3      11        0    0.0000
    137 C         165.7178  221.5563  153.1291 C.3      11        0    0.0000
    138 C         166.4347  220.4039  152.4190 C.3      11        0    0.0000
    139 H         166.1111  221.3029  155.2707 H        11        0    0.0000
    140 H         164.7908  220.2893  154.6608 H        11        0    0.0000
    141 H         163.6302  222.1444  155.7031 H        11        0    0.0000
    142 H         164.7798  223.3141  155.0301 H        11        0    0.0000
    143 H         162.7429  221.5729  153.5699 H        11        0    0.0000
    144 H         161.5627  223.3931  153.1800 H        11        0    0.0000
    145 H         162.6472  224.2884  154.2370 H        11        0    0.0000
    146 H         164.7295  222.9768  151.8219 H        11        0    0.0000
    147 H         164.0234  221.3746  151.7207 H        11        0    0.0000
    148 H         166.4364  222.3884  153.1779 H        11        0    0.0000
    149 H         167.5009  220.4348  152.6729 H        11        0    0.0000
    150 H         166.0476  219.4516  152.8005 H        11        0    0.0000
    151 C         165.4467  216.9455  149.6593 C.3      12        0    0.0000
    152 C         165.6371  217.9574  150.7921 C.3      12        0    0.0000
    153 C         166.5674  219.0475  150.2440 C.3      12        0    0.0000
    154 C         166.2890  220.4179  150.8676 C.3      12        0    0.0000
    155 C         166.3349  218.9753  148.7311 C.3      12        0    0.0000
    156 C         166.2698  217.4662  148.4738 C.3      12        0    0.0000
    157 C         165.6599  217.0746  147.1250 C.3      12        0    0.0000
    158 H         165.7768  215.9445  149.9571 H        12        0    0.0000
    159 H         164.3816  216.8749  149.4081 H        12        0    0.0000
    160 H         166.0669  217.4855  151.6823 H        12        0    0.0000
    161 H         164.6629  218.3694  151.0812 H        12        0    0.0000
    162 H         167.6051  218.7497  150.4539 H        12        0    0.0000
    163 H         165.2682  220.7295  150.6161 H        12        0    0.0000
    164 H         166.9629  221.1722  150.4447 H        12        0    0.0000
    165 H         167.1450  219.4514  148.1697 H        12        0    0.0000
    166 H         165.3911  219.4620  148.4550 H        12        0    0.0000
    167 H         167.2857  217.0526  148.5541 H        12        0    0.0000
    168 H         166.3995  217.1931  146.3245 H        12        0    0.0000
    169 H         164.8305  217.7532  146.8922 H        12        0    0.0000
    170 C         165.1219  215.6174  147.1205 C.3      13        0    0.0000
    171 C         163.6309  215.5039  146.7723 C.3      13        0    0.0000
    172 H         165.6921  215.0716  146.3578 H        13        0    0.0000
    173 H         165.3449  215.1383  148.0810 H        13        0    0.0000
    174 H         163.1204  216.4675  146.8855 H        13        0    0.0000
    175 H         163.5486  215.2278  145.7133 H        13        0    0.0000
    176 C         163.6129  210.8775  146.8882 C.3      14        0    0.0000
    177 C         163.9189  212.3309  146.5300 C.3      14        0    0.0000
    178 C         163.7268  213.1521  147.8168 C.3      14        0    0.0000
    179 C         162.8682  214.4030  147.5878 C.3      14        0    0.0000
    180 C         163.1313  212.1606  148.8283 C.3      14        0    0.0000
    181 C         163.6895  210.7929  148.4149 C.3      14        0    0.0000
    182 C         165.1260  210.5252  148.9000 C.3      14        0    0.0000
    183 H         162.5916  210.6396  146.5642 H        14        0    0.0000
    184 H         164.2843  210.1782  146.3801 H        14        0    0.0000
    185 H         163.2742  212.6661  145.7101 H        14        0    0.0000
    186 H         164.9550  212.4259  146.1844 H        14        0    0.0000
    187 H         164.7206  213.4601  148.1715 H        14        0    0.0000
    188 H         162.5359  214.8177  148.5465 H        14        0    0.0000
    189 H         161.9641  214.1249  147.0328 H        14        0    0.0000
    190 H         163.3759  212.4305  149.8602 H        14        0    0.0000
    191 H         162.0369  212.1419  148.7441 H        14        0    0.0000
    192 H         163.0314  209.9915  148.7741 H        14        0    0.0000
    193 H         165.7663  211.4009  148.7488 H        14        0    0.0000
    194 H         165.5617  209.7124  148.3064 H        14        0    0.0000
    195 C         165.1679  210.1035  150.3961 C.3      15        0    0.0000
    196 C         165.3292  211.2784  151.3712 C.3      15        0    0.0000
    197 H         164.2120  209.6098  150.6130 H        15        0    0.0000
    198 H         165.9505  209.3505  150.5459 H        15        0    0.0000
    199 H         165.9646  211.0062  152.2222 H        15        0    0.0000
    200 H         165.8438  212.0912  150.8428 H        15        0    0.0000
    201 C         160.5309  212.5703  150.8255 C.3      16        0    0.0000
    202 C         161.9807  213.0526  150.8230 C.3      16        0    0.0000
    203 C         162.8644  211.7932  150.8321 C.3      16        0    0.0000
    204 C         163.9716  211.8653  151.8919 C.3      16        0    0.0000
    205 C         161.8827  210.6281  151.0306 C.3      16        0    0.0000
    206 C         160.5723  211.1033  150.3901 C.3      16        0    0.0000
    207 C         160.5318  210.9616  148.8575 C.3      16        0    0.0000
    208 H         160.1380  212.6325  151.8484 H        16        0    0.0000
    209 H         159.8890  213.1929  150.1943 H        16        0    0.0000
    210 H         162.1660  213.7098  151.6797 H        16        0    0.0000
    211 H         162.1838  213.6377  149.9184 H        16        0    0.0000
    212 H         163.3253  211.6978  149.8388 H        16        0    0.0000
    213 H         163.6644  211.3344  152.8005 H        16        0    0.0000
    214 H         164.1330  212.9120  152.1762 H        16        0    0.0000
    215 H         162.2591  209.6960  150.5979 H        16        0    0.0000
    216 H         161.7149  210.4494  152.1007 H        16        0    0.0000
    217 H         159.7213  210.5643  150.8256 H        16        0    0.0000
    218 H         161.3664  211.4924  148.3871 H        16        0    0.0000
    219 H         159.6126  211.4232  148.4767 H        16        0    0.0000
    220 C         160.9224  208.4924  152.0307 C.3      17        0    0.0000
    221 C         161.4723  209.1366  150.7554 C.3      17        0    0.0000
    222 C         160.6986  208.5096  149.5882 C.3      17        0    0.0000
    223 C         160.5438  209.4730  148.4082 C.3      17        0    0.0000
    224 C         159.3794  208.0774  150.2369 C.3      17        0    0.0000
    225 C         159.8395  207.5029  151.5809 C.3      17        0    0.0000
    226 C         158.7273  207.3447  152.6214 C.3      17        0    0.0000
    227 H         161.7114  207.9821  152.5935 H        17        0    0.0000
    228 H         160.5089  209.2704  152.6836 H        17        0    0.0000
    229 H         162.5487  208.9631  150.6514 H        17        0    0.0000
    230 H         161.3210  210.2218  150.8002 H        17        0    0.0000
    231 H         161.2405  207.6098  149.2620 H        17        0    0.0000
    232 H         159.6032  209.2586  147.8868 H        17        0    0.0000
    233 H         161.3502  209.3176  147.6819 H        17        0    0.0000
    234 H         158.8514  207.3325  149.6330 H        17        0    0.0000
    235 H         158.7138  208.9371  150.3843 H        17        0    0.0000
    236 H         160.3184  206.5294  151.4008 H        17        0    0.0000
    237 H         158.1626  206.4232  152.4373 H        17        0    0.0000
    238 H         158.0181  208.1751  152.5223 H        17        0    0.0000
    239 C         162.9387  207.8407  154.3800 C.3      18        0    0.0000
    240 C         161.7442  207.7142  153.4312 C.3      18        0    0.0000
    241 C         160.7158  206.8117  154.1361 C.3      18        0    0.0000
    242 C         159.2750  207.3337  154.0749 C.3      18        0    0.0000
    243 C         161.2330  206.6934  155.5733 C.3      18        0    0.0000
    244 C         162.7587  206.7486  155.4400 C.3      18        0    0.0000
    245 C         163.3613  205.3939  155.0220 C.3      18        0    0.0000
    246 H         163.8915  207.7842  153.8452 H        18        0    0.0000
    247 H         162.9008  208.8239  154.8664 H        18        0    0.0000
    248 H         161.3471  208.7074  153.1941 H        18        0    0.0000
    249 H         162.0553  207.2556  152.4853 H        18        0    0.0000
    250 H         160.7586  205.8146  153.6749 H        18        0    0.0000
    251 H         158.6296  206.6908  154.6852 H        18        0    0.0000
    252 H         159.2145  208.3415  154.5018 H        18        0    0.0000
    253 H         160.8816  205.7787  156.0617 H        18        0    0.0000
    254 H         160.8874  207.5441  156.1749 H        18        0    0.0000
    255 H         163.2001  207.0661  156.3933 H        18        0    0.0000
    256 H         164.1549  205.5264  154.2783 H        18        0    0.0000
    257 H         162.5840  204.7793  154.5524 H        18        0    0.0000
    258 C         167.0544  205.7481  157.8830 C.3      19        0    0.0000
    259 C         165.9691  206.0639  156.8508 C.3      19        0    0.0000
    260 C         165.4535  204.7117  156.3266 C.3      19        0    0.0000
    261 C         163.9254  204.6113  156.2431 C.3      19        0    0.0000
    262 C         166.0548  203.6768  157.2830 C.3      19        0    0.0000
    263 C         167.4079  204.2693  157.6913 C.3      19        0    0.0000
    264 C         168.4955  204.0401  156.6246 C.3      19        0    0.0000
    265 H         167.9114  206.4223  157.7922 H        19        0    0.0000
    266 H         166.6379  205.8910  158.8883 H        19        0    0.0000
    267 H         165.1809  206.6711  157.3095 H        19        0    0.0000
    268 H         166.3880  206.6485  156.0234 H        19        0    0.0000
    269 H         165.8817  204.5429  155.3281 H        19        0    0.0000
    270 H         163.6355  203.5583  156.1456 H        19        0    0.0000
    271 H         163.4663  204.9830  157.1663 H        19        0    0.0000
    272 H         166.1459  202.6909  156.8159 H        19        0    0.0000
    273 H         165.4212  203.5650  158.1724 H        19        0    0.0000
    274 H         167.7307  203.8279  158.6427 H        19        0    0.0000
    275 H         169.3868  204.6423  156.8325 H        19        0    0.0000
    276 H         168.1176  204.3577  155.6455 H        19        0    0.0000
    277 C         168.8993  202.5405  156.5245 C.3      20        0    0.0000
    278 C         170.2234  202.2989  155.7858 C.3      20        0    0.0000
    279 H         169.0111  202.1731  157.5527 H        20        0    0.0000
    280 H         168.0808  201.9668  156.0740 H        20        0    0.0000
    281 H         170.2051  202.7365  154.7807 H        20        0    0.0000
    282 H         171.0201  202.8140  156.3377 H        20        0    0.0000
    283 C         169.8960  198.8870  158.7476 C.3      21        0    0.0000
    284 C         169.7222  200.2135  158.0096 C.3      21        0    0.0000
    285 C         169.7010  199.8828  156.5072 C.3      21        0    0.0000
    286 C         170.6374  200.7891  155.6972 C.3      21        0    0.0000
    287 C         170.0543  198.3894  156.4304 C.3      21        0    0.0000
    288 C         169.5292  197.7923  157.7423 C.3      21        0    0.0000
    289 C         168.0173  197.5012  157.7420 C.3      21        0    0.0000
    290 H         170.9495  198.7758  159.0343 H        21        0    0.0000
    291 H         169.3047  198.8475  159.6679 H        21        0    0.0000
    292 H         170.5231  200.9097  158.2817 H        21        0    0.0000
    293 H         168.7746  200.6850  158.2956 H        21        0    0.0000
    294 H         168.6715  200.0183  156.1468 H        21        0    0.0000
    295 H         170.6592  200.4734  154.6477 H        21        0    0.0000
    296 H         171.6601  200.6873  156.0797 H        21        0    0.0000
    297 H         169.6304  197.9126  155.5413 H        21        0    0.0000
    298 H         171.1433  198.2574  156.3866 H        21        0    0.0000
    299 H         170.0747  196.8711  157.9836 H        21        0    0.0000
    300 H         167.4346  198.4253  157.8199 H        21        0    0.0000
    301 H         167.7660  196.8974  158.6225 H        21        0    0.0000
    302 C         171.1461  196.0522  155.9464 C.3      22        0    0.0000
    303 C         169.7613  195.4382  156.1464 C.3      22        0    0.0000
    304 C         168.7498  196.4226  155.5340 C.3      22        0    0.0000
    305 C         167.5746  196.7132  156.4768 C.3      22        0    0.0000
    306 C         169.5816  197.6621  155.1700 C.3      22        0    0.0000
    307 C         170.9828  197.1195  154.8612 C.3      22        0    0.0000
    308 C         171.1318  196.5247  153.4490 C.3      22        0    0.0000
    309 H         171.4594  196.5333  156.8819 H        22        0    0.0000
    310 H         171.8999  195.2970  155.7032 H        22        0    0.0000
    311 H         169.5788  195.2455  157.2093 H        22        0    0.0000
    312 H         169.6959  194.4742  155.6284 H        22        0    0.0000
    313 H         168.3632  195.9754  154.6073 H        22        0    0.0000
    314 H         167.0864  195.7785  156.7762 H        22        0    0.0000
    315 H         166.8219  197.3071  155.9446 H        22        0    0.0000
    316 H         169.1436  198.2199  154.3366 H        22        0    0.0000
    317 H         169.6421  198.3454  156.0271 H        22        0    0.0000
    318 H         171.7332  197.9079  155.0024 H        22        0    0.0000
    319 H         171.2510  197.3118  152.6967 H        22        0    0.0000
    320 H         170.2166  195.9790  153.1889 H        22        0    0.0000
    321 C         173.0249  196.4381  156.8864 C.3      23        0    0.0000
    322 C         173.0178  196.9044  155.4286 C.3      23        0    0.0000
    323 C         173.2612  195.6536  154.5652 C.3      23        0    0.0000
    324 C         172.3255  195.5326  153.3561 C.3      23        0    0.0000
    325 C         173.1097  194.4813  155.5399 C.3      23        0    0.0000
    326 C         173.6182  195.0251  156.8793 C.3      23        0    0.0000
    327 C         175.1558  195.0136  156.9723 C.3      23        0    0.0000
    328 H         173.5594  197.1382  157.5355 H        23        0    0.0000
    329 H         171.9893  196.3915  157.2474 H        23        0    0.0000
    330 H         172.0692  197.4021  155.1989 H        23        0    0.0000
    331 H         173.8167  197.6355  155.2580 H        23        0    0.0000
    332 H         174.3032  195.6737  154.2150 H        23        0    0.0000
    333 H         172.8870  195.7486  152.4393 H        23        0    0.0000
    334 H         171.9494  194.5072  153.2641 H        23        0    0.0000
    335 H         173.6588  193.5955  155.2045 H        23        0    0.0000
    336 H         172.0532  194.1993  155.6369 H        23        0    0.0000
    337 H         173.1982  194.4310  157.7009 H        23        0    0.0000
    338 H         175.5795  195.9682  156.6410 H        23        0    0.0000
    339 H         175.5550  194.2396  156.3061 H        23        0    0.0000
    340 C         178.6030  192.3277  158.2468 C.3      24        0    0.0000
    341 C         177.3164  192.8831  157.6523 C.3      24        0    0.0000
    342 C         177.0646  194.1380  158.4946 C.3      24        0    0.0000
    343 C         175.6448  194.7075  158.4177 C.3      24        0    0.0000
    344 C         177.5627  193.7837  159.9094 C.3      24        0    0.0000
    345 C         178.3789  192.4855  159.7543 C.3      24        0    0.0000
    346 C         179.6391  192.3904  160.6199 C.3      24        0    0.0000
    347 H         178.7673  191.2836  157.9626 H        24        0    0.0000
    348 H         179.4577  192.9150  157.8935 H        24        0    0.0000
    349 H         177.4250  193.1167  156.5887 H        24        0    0.0000
    350 H         176.5118  192.1472  157.7585 H        24        0    0.0000
    351 H         177.7363  194.9203  158.1099 H        24        0    0.0000
    352 H         174.9491  193.9986  158.8822 H        24        0    0.0000
    353 H         175.5960  195.6298  159.0087 H        24        0    0.0000
    354 H         176.7453  193.6195  160.6198 H        24        0    0.0000
    355 H         178.1556  194.6143  160.3075 H        24        0    0.0000
    356 H         177.7219  191.6600  160.0672 H        24        0    0.0000
    357 H         180.2897  191.6037  160.2197 H        24        0    0.0000
    358 H         180.1981  193.3306  160.5437 H        24        0    0.0000
    359 C         182.5643  191.2752  163.9434 C.3      25        0    0.0000
    360 C         181.7674  192.0929  162.9385 C.3      25        0    0.0000
    361 C         180.4812  191.2798  162.7782 C.3      25        0    0.0000
    362 C         179.3617  192.0935  162.1242 C.3      25        0    0.0000
    363 C         180.1744  190.7947  164.2070 C.3      25        0    0.0000
    364 C         181.5115  190.8490  164.9743 C.3      25        0    0.0000
    365 C         181.8576  189.5925  165.7832 C.3      25        0    0.0000
    366 H         183.3695  191.8600  164.3991 H        25        0    0.0000
    367 H         183.0190  190.4163  163.4380 H        25        0    0.0000
    368 H         181.5571  193.0907  163.3425 H        25        0    0.0000
    369 H         182.3023  192.2123  161.9914 H        25        0    0.0000
    370 H         180.7052  190.3997  162.1579 H        25        0    0.0000
    371 H         178.4057  191.5649  162.2178 H        25        0    0.0000
    372 H         179.2480  193.0458  162.6558 H        25        0    0.0000
    373 H         179.4512  191.4539  164.7031 H        25        0    0.0000
    374 H         179.7301  189.7940  164.1884 H        25        0    0.0000
    375 H         181.4228  191.6703  165.7011 H        25        0    0.0000
    376 H         180.9496  189.2196  166.2719 H        25        0    0.0000
    377 H         182.5553  189.8658  166.5838 H        25        0    0.0000
    378 C         184.1612  189.6105  161.8467 C.3      26        0    0.0000
    379 C         183.3306  190.0015  163.0714 C.3      26        0    0.0000
    380 C         182.4916  188.7668  163.4467 C.3      26        0    0.0000
    381 C         182.4868  188.4422  164.9457 C.3      26        0    0.0000
    382 C         183.0851  187.6319  162.6060 C.3      26        0    0.0000
    383 C         183.5482  188.3113  161.3128 C.3      26        0    0.0000
    384 C         182.3889  188.5493  160.3266 C.3      26        0    0.0000
    385 H         184.2013  190.4162  161.1075 H        26        0    0.0000
    386 H         185.1929  189.4163  162.1670 H        26        0    0.0000
    387 H         183.9900  190.3305  163.8821 H        26        0    0.0000
    388 H         182.6689  190.8419  162.8311 H        26        0    0.0000
    389 H         181.4587  188.9364  163.1105 H        26        0    0.0000
    390 H         181.9055  187.5285  165.1175 H        26        0    0.0000
    391 H         183.5054  188.2416  165.2973 H        26        0    0.0000
    392 H         182.3606  186.8303  162.4293 H        26        0    0.0000
    393 H         183.9503  187.1900  163.1171 H        26        0    0.0000
    394 H         184.3183  187.6966  160.8296 H        26        0    0.0000
    395 H         182.7288  189.0982  159.4414 H        26        0    0.0000
    396 H         181.6217  189.1665  160.8090 H        26        0    0.0000
    397 C         181.7262  187.2136  159.8810 C.3      27        0    0.0000
    398 C         180.7995  186.5943  160.9369 C.3      27        0    0.0000
    399 H         181.1251  187.4397  158.9910 H        27        0    0.0000
    400 H         182.5003  186.5047  159.5646 H        27        0    0.0000
    401 H         180.2776  187.3678  161.5125 H        27        0    0.0000
    402 H         180.0262  186.0167  160.4145 H        27        0    0.0000
    403 C         184.9999  186.1381  163.3162 C.3      28        0    0.0000
    404 C         183.5659  186.6152  163.1443 C.3      28        0    0.0000
    405 C         183.0444  185.7698  161.9754 C.3      28        0    0.0000
    406 C         181.5207  185.6039  161.9154 C.3      28        0    0.0000
    407 C         183.8521  184.4562  162.0178 C.3      28        0    0.0000
    408 C         184.8782  184.6215  163.1538 C.3      28        0    0.0000
    409 C         186.2331  183.9583  162.8942 C.3      28        0    0.0000
    410 H         185.6397  186.5696  162.5368 H        28        0    0.0000
    411 H         185.4108  186.4182  164.2910 H        28        0    0.0000
    412 H         183.0062  186.4329  164.0680 H        28        0    0.0000
    413 H         183.5151  187.6870  162.9282 H        28        0    0.0000
    414 H         183.3361  186.2875  161.0494 H        28        0    0.0000
    415 H         181.2864  184.5769  161.6107 H        28        0    0.0000
    416 H         181.1061  185.7350  162.9220 H        28        0    0.0000
    417 H         184.3503  184.3123  161.0510 H        28        0    0.0000
    418 H         183.2272  183.5730  162.1868 H        28        0    0.0000
    419 H         184.4394  184.2107  164.0748 H        28        0    0.0000
    420 H         186.9458  184.6943  162.5035 H        28        0    0.0000
    421 H         186.6456  183.5936  163.8424 H        28        0    0.0000
    422 C         188.9810  180.2492  161.9147 C.3      29        0    0.0000
    423 C         187.4920  180.5612  161.8605 C.3      29        0    0.0000
    424 C         187.4684  182.0732  161.6135 C.3      29        0    0.0000
    425 C         186.1330  182.7658  161.9020 C.3      29        0    0.0000
    426 C         188.6844  182.6286  162.3805 C.3      29        0    0.0000
    427 C         189.5416  181.4030  162.7526 C.3      29        0    0.0000
    428 C         191.0573  181.6053  162.6623 C.3      29        0    0.0000
    429 H         189.1781  179.2749  162.3725 H        29        0    0.0000
    430 H         189.3939  180.2382  160.9000 H        29        0    0.0000
    431 H         186.9867  180.0064  161.0639 H        29        0    0.0000
    432 H         187.0226  180.2919  162.8132 H        29        0    0.0000
    433 H         187.6740  182.2247  160.5430 H        29        0    0.0000
    434 H         185.7060  183.1271  160.9590 H        29        0    0.0000
    435 H         185.4275  182.0300  162.3058 H        29        0    0.0000
    436 H         188.4030  183.1686  163.2910 H        29        0    0.0000
    437 H         189.2190  183.3462  161.7488 H        29        0    0.0000
    438 H         189.3197  181.1701  163.8051 H        29        0    0.0000
    439 H         191.2618  182.6057  162.2629 H        29        0    0.0000
    440 H         191.4836  181.5760  163.6721 H        29        0    0.0000
    441 C         191.1781  177.0766  163.1089 C.3      30        0    0.0000
    442 C         190.7098  178.4860  162.7805 C.3      30        0    0.0000
    443 C         192.0200  179.2281  162.5093 C.3      30        0    0.0000
    444 C         191.7920  180.5534  161.7781 C.3      30        0    0.0000
    445 C         192.8678  178.2027  161.7345 C.3      30        0    0.0000
    446 C         192.2837  176.8169  162.0778 C.3      30        0    0.0000
    447 C         193.3114  175.7493  162.4740 C.3      30        0    0.0000
    448 H         190.3658  176.3474  163.0299 H        30        0    0.0000
    449 H         191.5562  177.0467  164.1365 H        30        0    0.0000
    450 H         190.0692  178.4755  161.8902 H        30        0    0.0000
    451 H         190.1443  178.9322  163.6043 H        30        0    0.0000
    452 H         192.5122  179.4214  163.4736 H        30        0    0.0000
    453 H         192.7492  180.9695  161.4420 H        30        0    0.0000
    454 H         191.1942  180.3718  160.8770 H        30        0    0.0000
    455 H         192.7930  178.3632  160.6517 H        30        0    0.0000
    456 H         193.9266  178.2995  161.9966 H        30        0    0.0000
    457 H         191.7916  176.4491  161.1651 H        30        0    0.0000
    458 H         192.8173  174.7710  162.5067 H        30        0    0.0000
    459 H         193.6653  175.9563  163.4910 H        30        0    0.0000
    460 C         194.7227  178.4589  158.9806 C.3      31        0    0.0000
    461 C         194.2757  177.9489  160.3421 C.3      31        0    0.0000
    462 C         194.3834  176.4247  160.2070 C.3      31        0    0.0000
    463 C         194.5425  175.6597  161.5270 C.3      31        0    0.0000
    464 C         195.4889  176.1759  159.1604 C.3      31        0    0.0000
    465 C         195.9214  177.5650  158.6565 C.3      31        0    0.0000
    466 C         196.2979  177.6196  157.1739 C.3      31        0    0.0000
    467 H         193.9207  178.3280  158.2440 H        31        0    0.0000
    468 H         194.9926  179.5190  159.0087 H        31        0    0.0000
    469 H         194.9415  178.3431  161.1174 H        31        0    0.0000
    470 H         193.2564  178.2670  160.5829 H        31        0    0.0000
    471 H         193.4419  176.0748  159.7580 H        31        0    0.0000
    472 H         194.7382  174.6039  161.3049 H        31        0    0.0000
    473 H         195.4252  176.0380  162.0562 H        31        0    0.0000
    474 H         195.0777  175.5682  158.3447 H        31        0    0.0000
    475 H         196.3463  175.6266  159.5634 H        31        0    0.0000
    476 H         196.7748  177.8998  159.2640 H        31        0    0.0000
    477 H         195.4163  177.8614  156.5684 H        31        0    0.0000
    478 H         197.0212  178.4278  157.0132 H        31        0    0.0000
    479 C         196.9176  176.2873  156.6665 C.3      32        0    0.0000
    480 C         198.4530  176.2772  156.6568 C.3      32        0    0.0000
    481 H         196.5763  175.4988  157.3495 H        32        0    0.0000
    482 H         196.5109  176.0434  155.6781 H        32        0    0.0000
    483 H         198.8481  176.6263  155.6955 H        32        0    0.0000
    484 H         198.8029  176.9878  157.4165 H        32        0    0.0000
    485 C         199.9183  173.9153  160.4533 C.3      33        0    0.0000
    486 C         199.4613  175.0461  159.5329 C.3      33        0    0.0000
    487 C         198.6508  174.3925  158.4002 C.3      33        0    0.0000
    488 C         199.0832  174.8865  157.0134 C.3      33        0    0.0000
    489 C         198.8322  172.8814  158.6112 C.3      33        0    0.0000
    490 C         199.0269  172.7152  160.1236 C.3      33        0    0.0000
    491 C         197.7181  172.7368  160.9341 C.3      33        0    0.0000
    492 H         200.9610  173.6661  160.2184 H        33        0    0.0000
    493 H         199.8849  174.2045  161.5084 H        33        0    0.0000
    494 H         200.3243  175.6133  159.1673 H        33        0    0.0000
    495 H         198.8240  175.7484  160.0831 H        33        0    0.0000
    496 H         197.5919  174.6433  158.5554 H        33        0    0.0000
    497 H         198.8138  174.1515  156.2461 H        33        0    0.0000
    498 H         200.1752  174.9844  156.9883 H        33        0    0.0000
    499 H         197.9855  172.3080  158.2213 H        33        0    0.0000
    500 H         199.7337  172.5299  158.0925 H        33        0    0.0000
    501 H         199.5678  171.7840  160.3353 H        33        0    0.0000
    502 H         196.9621  173.3656  160.4516 H        33        0    0.0000
    503 H         197.9109  173.1791  161.9191 H        33        0    0.0000
    504 C         198.5454  170.0302  157.8919 C.3      34        0    0.0000
    505 C         197.9065  171.1209  158.7380 C.3      34        0    0.0000
    506 C         197.4575  170.3646  159.9900 C.3      34        0    0.0000
    507 C         197.1430  171.3088  161.1529 C.3      34        0    0.0000
    508 C         198.6098  169.3783  160.2548 C.3      34        0    0.0000
    509 C         199.3471  169.2098  158.9104 C.3      34        0    0.0000
    510 C         199.6423  167.7619  158.4985 C.3      34        0    0.0000
    511 H         199.1851  170.4445  157.1064 H        34        0    0.0000
    512 H         197.7624  169.4366  157.4078 H        34        0    0.0000
    513 H         198.6464  171.8919  158.9854 H        34        0    0.0000
    514 H         197.0696  171.6018  158.2225 H        34        0    0.0000
    515 H         196.5592  169.7827  159.7370 H        34        0    0.0000
    516 H         196.0591  171.3752  161.3038 H        34        0    0.0000
    517 H         197.5647  170.8974  162.0778 H        34        0    0.0000
    518 H         199.3106  169.7773  160.9986 H        34        0    0.0000
    519 H         198.2261  168.4341  160.6555 H        34        0    0.0000
    520 H         200.3233  169.7044  159.0240 H        34        0    0.0000
    521 H         199.6684  167.6991  157.4041 H        34        0    0.0000
    522 H         198.8158  167.1222  158.8302 H        34        0    0.0000
    523 C         200.4813  166.9019  162.7957 C.3      35        0    0.0000
    524 C         199.9528  167.2421  161.3997 C.3      35        0    0.0000
    525 C         201.1829  167.5579  160.5387 C.3      35        0    0.0000
    526 C         200.9730  167.1908  159.0670 C.3      35        0    0.0000
    527 C         202.3049  166.7821  161.2366 C.3      35        0    0.0000
    528 C         202.0087  167.0264  162.7200 C.3      35        0    0.0000
    529 C         202.7190  166.0670  163.6789 C.3      35        0    0.0000
    530 H         200.0695  167.5757  163.5547 H        35        0    0.0000
    531 H         200.1744  165.8840  163.0641 H        35        0    0.0000
    532 H         199.2647  168.0938  161.4289 H        35        0    0.0000
    533 H         199.3939  166.3864  161.0025 H        35        0    0.0000
    534 H         201.3943  168.6338  160.6247 H        35        0    0.0000
    535 H         200.9556  166.0990  158.9653 H        35        0    0.0000
    536 H         201.8130  167.5512  158.4617 H        35        0    0.0000
    537 H         203.2955  167.1503  160.9513 H        35        0    0.0000
    538 H         202.2517  165.7128  160.9962 H        35        0    0.0000
    539 H         202.2806  168.0633  162.9658 H        35        0    0.0000
    540 H         201.9858  165.5288  164.2909 H        35        0    0.0000
    541 H         203.3452  166.6437  164.3701 H        35        0    0.0000
    542 C         202.9994  165.2306  159.1877 C.3      36        0    0.0000
    543 C         202.4986  165.3615  160.6193 C.3      36        0    0.0000
    544 C         203.7933  165.3321  161.4382 C.3      36        0    0.0000
    545 C         203.6195  165.0446  162.9326 C.3      36        0    0.0000
    546 C         204.7305  164.3707  160.6812 C.3      36        0    0.0000
    547 C         204.0805  164.1507  159.3012 C.3      36        0    0.0000
    548 C         205.0517  164.0659  158.1198 C.3      36        0    0.0000
    549 H         202.1993  164.9408  158.4995 H        36        0    0.0000
    550 H         203.4083  166.1891  158.8496 H        36        0    0.0000
    551 H         201.9361  166.2877  160.7725 H        36        0    0.0000
    552 H         201.8399  164.5196  160.8593 H        36        0    0.0000
    553 H         204.2412  166.3345  161.3629 H        36        0    0.0000
    554 H         203.1925  164.0424  163.0571 H        36        0    0.0000
    555 H         204.6057  165.0285  163.4116 H        36        0    0.0000
    556 H         204.8504  163.4067  161.1872 H        36        0    0.0000
    557 H         205.7310  164.8114  160.6151 H        36        0    0.0000
    558 H         203.5600  163.1822  159.3479 H        36        0    0.0000
    559 H         204.5400  163.6017  157.2684 H        36        0    0.0000
    560 H         205.3257  165.0806  157.8075 H        36        0    0.0000
    561 C         205.4549  160.4174  160.6213 C.3      37        0    0.0000
    562 C         205.0150  161.7578  160.0275 C.3      37        0    0.0000
    563 C         206.2972  162.5744  159.7864 C.3      37        0    0.0000
    564 C         206.3546  163.2650  158.4182 C.3      37        0    0.0000
    565 C         207.4343  161.5659  159.9790 C.3      37        0    0.0000
    566 C         206.9154  160.5992  161.0489 C.3      37        0    0.0000
    567 C         207.0630  161.1657  162.4738 C.3      37        0    0.0000
    568 H         204.7945  160.0945  161.4317 H        37        0    0.0000
    569 H         205.4023  159.6499  159.8384 H        37        0    0.0000
    570 H         204.4383  161.5905  159.1111 H        37        0    0.0000
    571 H         204.3615  162.2897  160.7288 H        37        0    0.0000
    572 H         206.3766  163.3335  160.5777 H        37        0    0.0000
    573 H         207.2027  163.9598  158.3974 H        37        0    0.0000
    574 H         206.5276  162.5289  157.6247 H        37        0    0.0000
    575 H         208.3714  162.0541  160.2656 H        37        0    0.0000
    576 H         207.6187  161.0155  159.0473 H        37        0    0.0000
    577 H         207.4552  159.6465  160.9769 H        37        0    0.0000
    578 H         206.2411  160.8348  163.1184 H        37        0    0.0000
    579 H         207.0176  162.2606  162.4367 H        37        0    0.0000
    580 C         211.9439  160.4636  161.7621 C.3      38        0    0.0000
    581 C         210.9079  161.2297  162.5703 C.3      38        0    0.0000
    582 C         209.5766  160.6128  162.1232 C.3      38        0    0.0000
    583 C         208.4193  160.7590  163.1194 C.3      38        0    0.0000
    584 C         209.9079  159.1665  161.7012 C.3      38        0    0.0000
    585 C         211.4353  159.0222  161.8313 C.3      38        0    0.0000
    586 C         212.0864  158.1289  160.7725 C.3      38        0    0.0000
    587 H         211.9632  160.8273  160.7275 H        38        0    0.0000
    588 H         212.9494  160.5682  162.1809 H        38        0    0.0000
    589 H         211.0941  161.0804  163.6394 H        38        0    0.0000
    590 H         210.9476  162.3051  162.3708 H        38        0    0.0000
    591 H         209.2676  161.1429  161.2099 H        38        0    0.0000
    592 H         208.2845  159.8089  163.6500 H        38        0    0.0000
    593 H         208.6899  161.5053  163.8757 H        38        0    0.0000
    594 H         209.5817  159.0135  160.6649 H        38        0    0.0000
    595 H         209.3953  158.4135  162.3091 H        38        0    0.0000
    596 H         211.6584  158.6261  162.8327 H        38        0    0.0000
    597 H         213.1271  157.9166  161.0448 H        38        0    0.0000
    598 H         211.5660  157.1643  160.7426 H        38        0    0.0000
    599 C         214.7720  161.4020  159.1366 C.3      39        0    0.0000
    600 C         213.7977  160.5713  159.9601 C.3      39        0    0.0000
    601 C         213.3255  159.5093  158.9617 C.3      39        0    0.0000
    602 C         212.0474  158.7612  159.3529 C.3      39        0    0.0000
    603 C         213.2854  160.2246  157.5971 C.3      39        0    0.0000
    604 C         214.0460  161.5503  157.7955 C.3      39        0    0.0000
    605 C         214.9220  161.9915  156.6190 C.3      39        0    0.0000
    606 H         214.9781  162.3709  159.6021 H        39        0    0.0000
    607 H         215.7214  160.8650  159.0342 H        39        0    0.0000
    608 H         214.2790  160.1266  160.8366 H        39        0    0.0000
    609 H         212.9743  161.2044  160.3086 H        39        0    0.0000
    610 H         214.1230  158.7536  158.8989 H        39        0    0.0000
    611 H         211.1974  159.4517  159.2982 H        39        0    0.0000
    612 H         211.8572  157.9687  158.6195 H        39        0    0.0000
    613 H         212.2659  160.4350  157.2565 H        39        0    0.0000
    614 H         213.7397  159.5832  156.8341 H        39        0    0.0000
    615 H         213.2852  162.3340  157.9297 H        39        0    0.0000
    616 H         215.1689  163.0535  156.7350 H        39        0    0.0000
    617 H         215.8703  161.4422  156.6524 H        39        0    0.0000
    618 C         216.0325  161.9219  151.9573 C.3      40        0    0.0000
    619 C         216.1643  161.7256  153.4697 C.3      40        0    0.0000
    620 C         215.0261  162.5330  154.1191 C.3      40        0    0.0000
    621 C         214.2697  161.7792  155.2199 C.3      40        0    0.0000
    622 C         214.1177  162.9222  152.9484 C.3      40        0    0.0000
    623 C         215.0716  163.0998  151.7624 C.3      40        0    0.0000
    624 C         215.7798  164.4678  151.7778 C.3      40        0    0.0000
    625 H         217.0062  162.0623  151.4784 H        40        0    0.0000
    626 H         215.5871  161.0184  151.5215 H        40        0    0.0000
    627 H         216.1225  160.6585  153.7141 H        40        0    0.0000
    628 H         217.1332  162.1004  153.8199 H        40        0    0.0000
    629 H         215.4535  163.4542  154.5403 H        40        0    0.0000
    630 H         213.2345  162.1385  155.2605 H        40        0    0.0000
    631 H         214.2255  160.7085  154.9898 H        40        0    0.0000
    632 H         213.5346  163.8234  153.1638 H        40        0    0.0000
    633 H         213.4087  162.1131  152.7297 H        40        0    0.0000
    634 H         214.5157  162.9869  150.8230 H        40        0    0.0000
    635 H         216.7707  164.4057  151.3145 H        40        0    0.0000
    636 H         215.9328  164.7867  152.8156 H        40        0    0.0000
    637 C         212.4973  166.8456  153.5342 C.3      41        0    0.0000
    638 C         213.4741  165.7247  153.1703 C.3      41        0    0.0000
    639 C         213.5245  165.6668  151.6330 C.3      41        0    0.0000
    640 C         214.9408  165.5607  151.0542 C.3      41        0    0.0000
    641 C         212.8024  166.9394  151.1789 C.3      41        0    0.0000
    642 C         211.7317  167.1781  152.2489 C.3      41        0    0.0000
    643 C         210.4862  166.2958  152.0407 C.3      41        0    0.0000
    644 H         211.8522  166.5674  154.3731 H        41        0    0.0000
    645 H         213.0718  167.7264  153.8487 H        41        0    0.0000
    646 H         214.4533  165.9198  153.6213 H        41        0    0.0000
    647 H         213.1198  164.7663  153.5674 H        41        0    0.0000
    648 H         212.9328  164.8017  151.3009 H        41        0    0.0000
    649 H         214.8798  165.3046  149.9897 H        41        0    0.0000
    650 H         215.4545  166.5267  151.1197 H        41        0    0.0000
    651 H         212.3828  166.8361  150.1730 H        41        0    0.0000
    652 H         213.4984  167.7881  151.1622 H        41        0    0.0000
    653 H         211.4357  168.2348  152.2439 H        41        0    0.0000
    654 H         210.5663  165.3590  152.6033 H        41        0    0.0000
    655 H         210.4048  166.0253  150.9813 H        41        0    0.0000
    656 C         210.4716  169.7402  150.3367 C.3      42        0    0.0000
    657 C         209.8287  168.3545  150.3675 C.3      42        0    0.0000
    658 C         208.9465  168.3056  151.6271 C.3      42        0    0.0000
    659 C         209.1799  167.0341  152.4536 C.3      42        0    0.0000
    660 C         209.2647  169.6077  152.3781 C.3      42        0    0.0000
    661 C         209.6420  170.6126  151.2823 C.3      42        0    0.0000
    662 C         208.4359  171.2452  150.5643 C.3      42        0    0.0000
    663 H         211.4968  169.6644  150.7212 H        42        0    0.0000
    664 H         210.5366  170.1412  149.3203 H        42        0    0.0000
    665 H         210.5991  167.5757  150.3559 H        42        0    0.0000
    666 H         209.2067  168.2054  149.4771 H        42        0    0.0000
    667 H         207.8962  168.3349  151.3042 H        42        0    0.0000
    668 H         208.3254  166.3544  152.3564 H        42        0    0.0000
    669 H         209.2532  167.3005  153.5148 H        42        0    0.0000
    670 H         208.4250  169.9407  152.9959 H        42        0    0.0000
    671 H         210.1254  169.4627  153.0440 H        42        0    0.0000
    672 H         210.2724  171.4082  151.6996 H        42        0    0.0000
    673 H         207.5444  170.6156  150.6550 H        42        0    0.0000
    674 H         208.6552  171.3251  149.4926 H        42        0    0.0000
    675 C         208.1209  172.6714  151.0979 C.3      43        0    0.0000
    676 C         207.9921  173.7347  149.9978 C.3      43        0    0.0000
    677 H         207.1598  172.6077  151.6240 H        43        0    0.0000
    678 H         208.8690  172.9597  151.8456 H        43        0    0.0000
    679 H         208.2420  173.3223  149.0132 H        43        0    0.0000
    680 H         206.9415  174.0485  149.9490 H        43        0    0.0000
    681 C         209.0868  178.3124  148.3634 C.3      44        0    0.0000
    682 C         209.7100  177.2547  149.2634 C.3      44        0    0.0000
    683 C         208.7145  176.0940  149.1666 C.3      44        0    0.0000
    684 C         208.8391  175.0280  150.2595 C.3      44        0    0.0000
    685 C         207.3290  176.7572  149.0401 C.3      44        0    0.0000
    686 C         207.6012  178.2426  148.7320 C.3      44        0    0.0000
    687 C         206.6439  178.8954  147.7302 C.3      44        0    0.0000
    688 H         209.5096  179.3053  148.5460 H        44        0    0.0000
    689 H         209.2634  178.0554  147.3131 H        44        0    0.0000
    690 H         210.7104  176.9677  148.9249 H        44        0    0.0000
    691 H         209.7944  177.6411  150.2851 H        44        0    0.0000
    692 H         208.9097  175.5853  148.2104 H        44        0    0.0000
    693 H         209.8929  174.7438  150.3638 H        44        0    0.0000
    694 H         208.5332  175.4612  151.2192 H        44        0    0.0000
    695 H         206.7333  176.6765  149.9557 H        44        0    0.0000
    696 H         206.7544  176.2574  148.2529 H        44        0    0.0000
    697 H         207.4818  178.7889  149.6798 H        44        0    0.0000
    698 H         206.4424  178.1897  146.9155 H        44        0    0.0000
    699 H         205.6844  179.0880  148.2246 H        44        0    0.0000
    700 C         210.8307  180.9149  147.7071 C.3      45        0    0.0000
    701 C         209.6512  179.9440  147.6087 C.3      45        0    0.0000
    702 C         208.3873  180.7741  147.8688 C.3      45        0    0.0000
    703 C         207.1686  180.2292  147.1188 C.3      45        0    0.0000
    704 C         208.8093  182.1889  147.4587 C.3      45        0    0.0000
    705 C         210.2304  182.2913  148.0226 C.3      45        0    0.0000
    706 C         211.0654  183.4370  147.4441 C.3      45        0    0.0000
    707 H         211.5384  180.6075  148.4846 H        45        0    0.0000
    708 H         211.3766  180.9237  146.7561 H        45        0    0.0000
    709 H         209.7421  179.1290  148.3347 H        45        0    0.0000
    710 H         209.6347  179.4897  146.6107 H        45        0    0.0000
    711 H         208.1892  180.7668  148.9505 H        45        0    0.0000
    712 H         207.4385  180.0501  146.0712 H        45        0    0.0000
    713 H         206.3615  180.9711  147.1148 H        45        0    0.0000
    714 H         208.1464  182.9515  147.8795 H        45        0    0.0000
    715 H         208.8111  182.2974  146.3669 H        45        0    0.0000
    716 H         210.1674  182.3952  149.1157 H        45        0    0.0000
    717 H         211.9755  183.0451  146.9751 H        45        0    0.0000
    718 H         211.3883  184.0966  148.2584 H        45        0    0.0000
    719 C         212.6056  185.9380  143.9255 C.3      46        0    0.0000
    720 C         212.3446  184.8555  144.9616 C.3      46        0    0.0000
    721 C         211.1028  185.3630  145.7054 C.3      46        0    0.0000
    722 C         210.2729  184.2816  146.4089 C.3      46        0    0.0000
    723 C         210.3332  186.2309  144.6884 C.3      46        0    0.0000
    724 C         211.2014  186.2719  143.4176 C.3      46        0    0.0000
    725 C         211.1630  187.6006  142.6587 C.3      46        0    0.0000
    726 H         213.0737  186.8105  144.3974 H        46        0    0.0000
    727 H         213.2632  185.5879  143.1240 H        46        0    0.0000
    728 H         212.1620  183.9011  144.4559 H        46        0    0.0000
    729 H         213.1972  184.7200  145.6344 H        46        0    0.0000
    730 H         211.4566  186.0436  146.4941 H        46        0    0.0000
    731 H         209.4270  184.7579  146.9187 H        46        0    0.0000
    732 H         209.8469  183.6096  145.6546 H        46        0    0.0000
    733 H         210.1961  187.2353  145.1080 H        46        0    0.0000
    734 H         209.3344  185.8432  144.4618 H        46        0    0.0000
    735 H         210.8739  185.4600  142.7520 H        46        0    0.0000
    736 H         212.1820  187.9382  142.4353 H        46        0    0.0000
    737 H         210.6621  187.4528  141.6945 H        46        0    0.0000
    738 C         209.1419  191.6067  141.3325 C.3      47        0    0.0000
    739 C         208.9096  190.5438  142.3973 C.3      47        0    0.0000
    740 C         210.3282  190.0544  142.7067 C.3      47        0    0.0000
    741 C         210.4152  188.7145  143.4439 C.3      47        0    0.0000
    742 C         211.0834  190.1248  141.3649 C.3      47        0    0.0000
    743 C         210.1903  190.9566  140.4238 C.3      47        0    0.0000
    744 C         210.9314  191.9140  139.4854 C.3      47        0    0.0000
    745 H         208.2227  191.8506  140.7910 H        47        0    0.0000
    746 H         209.5145  192.5244  141.8008 H        47        0    0.0000
    747 H         208.4138  190.9536  143.2827 H        47        0    0.0000
    748 H         208.2776  189.7460  141.9920 H        47        0    0.0000
    749 H         210.7876  190.8049  143.3675 H        47        0    0.0000
    750 H         210.9198  188.8670  144.4053 H        47        0    0.0000
    751 H         209.4015  188.3645  143.6722 H        47        0    0.0000
    752 H         211.2607  189.1379  140.9239 H        47        0    0.0000
    753 H         212.0698  190.5739  141.5232 H        47        0    0.0000
    754 H         209.6557  190.2409  139.7812 H        47        0    0.0000
    755 H         212.0092  191.7276  139.5620 H        47        0    0.0000
    756 H         210.6464  191.6932  138.4499 H        47        0    0.0000
    757 C         207.0424  194.1237  140.6346 C.3      48        0    0.0000
    758 C         208.2132  193.1550  140.5690 C.3      48        0    0.0000
    759 C         209.1962  193.8448  139.6147 C.3      48        0    0.0000
    760 C         210.6631  193.4228  139.7675 C.3      48        0    0.0000
    761 C         208.9242  195.3566  139.7567 C.3      48        0    0.0000
    762 C         207.7304  195.4876  140.7203 C.3      48        0    0.0000
    763 C         206.7729  196.6382  140.4004 C.3      48        0    0.0000
    764 H         206.4326  194.0443  139.7263 H        48        0    0.0000
    765 H         206.3983  193.9301  141.4978 H        48        0    0.0000
    766 H         208.6348  193.0220  141.5712 H        48        0    0.0000
    767 H         207.9086  192.1703  140.2007 H        48        0    0.0000
    768 H         208.8994  193.5675  138.5922 H        48        0    0.0000
    769 H         211.2785  194.0221  139.0859 H        48        0    0.0000
    770 H         210.9997  193.6588  140.7840 H        48        0    0.0000
    771 H         208.6844  195.7703  138.7693 H        48        0    0.0000
    772 H         209.7878  195.9150  140.1330 H        48        0    0.0000
    773 H         208.1243  195.6111  141.7396 H        48        0    0.0000
    774 H         205.9899  196.2984  139.7122 H        48        0    0.0000
    775 H         206.2673  196.9552  141.3204 H        48        0    0.0000
    776 C         206.0197  200.7905  139.6107 C.3      49        0    0.0000
    777 C         205.4937  199.3695  139.3914 C.3      49        0    0.0000
    778 C         206.6298  198.5800  138.7320 C.3      49        0    0.0000
    779 C         207.5004  197.8653  139.7827 C.3      49        0    0.0000
    780 C         207.3598  199.6704  137.9375 C.3      49        0    0.0000
    781 C         207.3657  200.8822  138.8728 C.3      49        0    0.0000
    782 C         207.5887  202.1987  138.1199 C.3      49        0    0.0000
    783 H         205.2884  201.5172  139.2392 H        49        0    0.0000
    784 H         206.1600  200.9889  140.6795 H        49        0    0.0000
    785 H         204.6371  199.4115  138.7067 H        49        0    0.0000
    786 H         205.1373  198.9172  140.3225 H        49        0    0.0000
    787 H         206.2131  197.8312  138.0461 H        49        0    0.0000
    788 H         207.7380  198.5670  140.5913 H        49        0    0.0000
    789 H         208.4568  197.5458  139.3553 H        49        0    0.0000
    790 H         206.7924  199.8967  137.0253 H        49        0    0.0000
    791 H         208.3713  199.3865  137.6319 H        49        0    0.0000
    792 H         208.1727  200.7496  139.6071 H        49        0    0.0000
    793 H         208.3549  202.8004  138.6226 H        49        0    0.0000
    794 H         206.6634  202.7867  138.1328 H        49        0    0.0000
    795 C         208.0056  201.9559  136.6409 C.3      50        0    0.0000
    796 C         207.4717  203.0105  135.6610 C.3      50        0    0.0000
    797 H         209.1023  201.9881  136.6115 H        50        0    0.0000
    798 H         207.7135  200.9441  136.3361 H        50        0    0.0000
    799 H         206.3997  203.1859  135.8089 H        50        0    0.0000
    800 H         207.9775  203.9608  135.8748 H        50        0    0.0000
    801 C         211.1734  201.4013  133.1536 C.3      51        0    0.0000
    802 C         209.9980  201.3899  134.1189 C.3      51        0    0.0000
    803 C         209.2351  202.6741  133.7701 C.3      51        0    0.0000
    804 C         207.7500  202.6787  134.1540 C.3      51        0    0.0000
    805 C         209.5348  202.9459  132.2815 C.3      51        0    0.0000
    806 C         210.5347  201.8610  131.8414 C.3      51        0    0.0000
    807 C         211.5787  202.3275  130.8238 C.3      51        0    0.0000
    808 H         211.9366  202.1123  133.4929 H        51        0    0.0000
    809 H         211.6394  200.4153  133.0639 H        51        0    0.0000
    810 H         209.3942  200.4918  133.9499 H        51        0    0.0000
    811 H         210.3268  201.3805  135.1629 H        51        0    0.0000
    812 H         209.7043  203.4909  134.3386 H        51        0    0.0000
    813 H         207.2237  203.4113  133.5305 H        51        0    0.0000
    814 H         207.3167  201.6989  133.9208 H        51        0    0.0000
    815 H         209.9682  203.9489  132.1821 H        51        0    0.0000
    816 H         208.6390  202.9241  131.6520 H        51        0    0.0000
    817 H         209.9649  201.0190  131.4223 H        51        0    0.0000
    818 H         212.5579  202.4300  131.3063 H        51        0    0.0000
    819 H         211.6906  201.5647  130.0440 H        51        0    0.0000
    820 C         209.9394  206.1525  131.9027 C.3      52        0    0.0000
    821 C         209.7135  204.6398  131.9728 C.3      52        0    0.0000
    822 C         209.7710  204.1223  130.5314 C.3      52        0    0.0000
    823 C         211.1954  203.6757  130.1515 C.3      52        0    0.0000
    824 C         209.2496  205.3263  129.7367 C.3      52        0    0.0000
    825 C         209.8956  206.5374  130.4146 C.3      52        0    0.0000
    826 C         209.1454  207.8407  130.1176 C.3      52        0    0.0000
    827 H         209.1726  206.6688  132.4913 H        52        0    0.0000
    828 H         210.9119  206.4173  132.3334 H        52        0    0.0000
    829 H         208.7147  204.4504  132.3860 H        52        0    0.0000
    830 H         210.4327  204.1494  132.6367 H        52        0    0.0000
    831 H         209.0880  203.2711  130.4144 H        52        0    0.0000
    832 H         211.9116  204.4390  130.4789 H        52        0    0.0000
    833 H         211.3078  203.5873  129.0657 H        52        0    0.0000
    834 H         208.1568  205.3768  129.8289 H        52        0    0.0000
    835 H         209.4864  205.2823  128.6694 H        52        0    0.0000
    836 H         210.9284  206.6287  130.0501 H        52        0    0.0000
    837 H         209.8550  208.6561  129.9351 H        52        0    0.0000
    838 H         208.5511  208.1264  130.9936 H        52        0    0.0000
    839 C         208.1945  207.6953  128.8949 C.3      53        0    0.0000
    840 C         207.9398  209.0094  128.1429 C.3      53        0    0.0000
    841 H         207.2337  207.3328  129.2821 H        53        0    0.0000
    842 H         208.5746  206.9177  128.2218 H        53        0    0.0000
    843 H         207.3238  209.6540  128.7829 H        53        0    0.0000
    844 H         208.8748  209.5516  127.9592 H        53        0    0.0000
    845 C         204.7493  205.9879  126.2065 C.3      54        0    0.0000
    846 C         205.1122  207.3276  126.8285 C.3      54        0    0.0000
    847 C         206.6244  207.4087  126.6097 C.3      54        0    0.0000
    848 C         207.1589  208.8310  126.7949 C.3      54        0    0.0000
    849 C         206.8218  206.8252  125.1986 C.3      54        0    0.0000
    850 C         205.5800  205.9544  124.9173 C.3      54        0    0.0000
    851 C         205.8700  204.5546  124.3610 C.3      54        0    0.0000
    852 H         203.6767  205.9087  126.0038 H        54        0    0.0000
    853 H         205.0208  205.1795  126.8940 H        54        0    0.0000
    854 H         204.5927  208.1412  126.3077 H        54        0    0.0000
    855 H         204.8444  207.3731  127.8885 H        54        0    0.0000
    856 H         207.1130  206.7367  127.3302 H        54        0    0.0000
    857 H         207.8153  209.1002  125.9589 H        54        0    0.0000
    858 H         206.3210  209.5381  126.7772 H        54        0    0.0000
    859 H         206.8782  207.6204  124.4447 H        54        0    0.0000
    860 H         207.7612  206.2656  125.1396 H        54        0    0.0000
    861 H         204.9970  206.4793  124.1459 H        54        0    0.0000
    862 H         204.9209  204.0314  124.1947 H        54        0    0.0000
    863 H         206.4182  203.9783  125.1159 H        54        0    0.0000
    864 C         206.9187  208.3175  122.7646 C.3      55        0    0.0000
    865 C         206.0866  207.0664  123.0013 C.3      55        0    0.0000
    866 C         206.9738  205.9380  122.4604 C.3      55        0    0.0000
    867 C         206.6879  204.5459  123.0376 C.3      55        0    0.0000
    868 C         208.4252  206.4356  122.6202 C.3      55        0    0.0000
    869 C         208.3272  207.8728  123.1639 C.3      55        0    0.0000
    870 C         209.4035  208.8288  122.6435 C.3      55        0    0.0000
    871 H         206.8793  208.6052  121.7069 H        55        0    0.0000
    872 H         206.5665  209.1631  123.3632 H        55        0    0.0000
    873 H         205.8865  206.9572  124.0727 H        55        0    0.0000
    874 H         205.1231  207.1127  122.4840 H        55        0    0.0000
    875 H         206.7830  205.8699  121.3789 H        55        0    0.0000
    876 H         206.1415  203.9568  122.2914 H        55        0    0.0000
    877 H         207.6386  204.0281  123.2116 H        55        0    0.0000
    878 H         208.9195  206.4145  121.6410 H        55        0    0.0000
    879 H         209.0228  205.8087  123.2904 H        55        0    0.0000
    880 H         208.3760  207.8284  124.2616 H        55        0    0.0000
    881 H         209.1741  209.8573  122.9462 H        55        0    0.0000
    882 H         210.3667  208.5735  123.1011 H        55        0    0.0000
    883 C         209.5548  208.7717  121.0974 C.3      56        0    0.0000
    884 C         210.6209  209.7253  120.5393 C.3      56        0    0.0000
    885 H         208.5845  209.0600  120.6732 H        56        0    0.0000
    886 H         209.7399  207.7381  120.7822 H        56        0    0.0000
    887 H         210.7288  210.5630  121.2402 H        56        0    0.0000
    888 H         211.6010  209.2375  120.4806 H        56        0    0.0000
    889 C         213.1087  212.5585  118.2928 C.3      57        0    0.0000
    890 C         212.3580  211.8172  119.4019 C.3      57        0    0.0000
    891 C         210.8878  211.7289  118.9551 C.3      57        0    0.0000
    892 C         210.2548  210.3450  119.1462 C.3      57        0    0.0000
    893 C         210.9082  212.1632  117.4861 C.3      57        0    0.0000
    894 C         212.0354  213.1982  117.4054 C.3      57        0    0.0000
    895 C         211.5924  214.5889  117.8983 C.3      57        0    0.0000
    896 H         213.8310  213.2738  118.6976 H        57        0    0.0000
    897 H         213.6761  211.8284  117.7014 H        57        0    0.0000
    898 H         212.8118  210.8341  119.5692 H        57        0    0.0000
    899 H         212.4276  212.3708  120.3455 H        57        0    0.0000
    900 H         210.3096  212.4720  119.5227 H        57        0    0.0000
    901 H         209.1638  210.4324  119.0802 H        57        0    0.0000
    902 H         210.5683  209.6665  118.3445 H        57        0    0.0000
    903 H         209.9411  212.5617  117.1628 H        57        0    0.0000
    904 H         211.1482  211.3098  116.8387 H        57        0    0.0000
    905 H         212.3920  213.2741  116.3703 H        57        0    0.0000
    906 H         210.8969  214.5071  118.7409 H        57        0    0.0000
    907 H         211.0579  215.1071  117.0932 H        57        0    0.0000
    908 C         212.8070  215.4673  118.3167 C.3      58        0    0.0000
    909 C         213.0282  216.6938  117.4199 C.3      58        0    0.0000
    910 H         212.6052  215.8224  119.3354 H        58        0    0.0000
    911 H         213.7092  214.8471  118.3739 H        58        0    0.0000
    912 H         212.3527  216.6837  116.5565 H        58        0    0.0000
    913 H         212.7798  217.5905  118.0021 H        58        0    0.0000
    914 C         215.9517  216.1116  114.0809 C.3      59        0    0.0000
    915 C         214.7502  215.4998  114.8064 C.3      59        0    0.0000
    916 C         215.0613  215.5730  116.3054 C.3      59        0    0.0000
    917 C         214.5079  216.8671  116.9311 C.3      59        0    0.0000
    918 C         216.5913  215.4633  116.3216 C.3      59        0    0.0000
    919 C         217.0464  216.3233  115.1398 C.3      59        0    0.0000
    920 C         218.4615  215.9671  114.6703 C.3      59        0    0.0000
    921 H         216.2743  215.4453  113.2727 H        59        0    0.0000
    922 H         215.6785  217.0689  113.6225 H        59        0    0.0000
    923 H         214.6547  214.4482  114.5074 H        59        0    0.0000
    924 H         213.8128  215.9960  114.5353 H        59        0    0.0000
    925 H         214.6176  214.7109  116.8198 H        59        0    0.0000
    926 H         214.5311  217.6680  116.1821 H        59        0    0.0000
    927 H         215.1316  217.2028  117.7665 H        59        0    0.0000
    928 H         216.8821  214.4164  116.1643 H        59        0    0.0000
    929 H         217.0438  215.7910  117.2622 H        59        0    0.0000
    930 H         217.0279  217.3773  115.4507 H        59        0    0.0000
    931 H         218.8770  216.7790  114.0621 H        59        0    0.0000
    932 H         218.4194  215.0788  114.0290 H        59        0    0.0000
    933 C         217.3854  217.0939  118.7362 C.3      60        0    0.0000
    934 C         218.5165  217.2385  117.7296 C.3      60        0    0.0000
    935 C         218.7516  215.8020  117.2458 C.3      60        0    0.0000
    936 C         219.4117  215.6748  115.8669 C.3      60        0    0.0000
    937 C         217.3954  215.0830  117.3992 C.3      60        0    0.0000
    938 C         216.4430  216.1011  118.0526 C.3      60        0    0.0000
    939 C         215.4331  215.4965  119.0311 C.3      60        0    0.0000
    940 H         217.7677  216.6901  119.6816 H        60        0    0.0000
    941 H         216.8977  218.0511  118.9447 H        60        0    0.0000
    942 H         218.2008  217.9017  116.9170 H        60        0    0.0000
    943 H         219.4146  217.6692  118.1833 H        60        0    0.0000
    944 H         219.4396  215.3301  117.9630 H        60        0    0.0000
    945 H         220.2631  216.3638  115.8153 H        60        0    0.0000
    946 H         219.8194  214.6629  115.7569 H        60        0    0.0000
    947 H         217.5298  214.1998  118.0362 H        60        0    0.0000
    948 H         216.9874  214.7277  116.4471 H        60        0    0.0000
    949 H         215.9061  216.6311  117.2524 H        60        0    0.0000
    950 H         215.9554  214.9371  119.8162 H        60        0    0.0000
    951 H         214.8854  216.3040  119.5315 H        60        0    0.0000
    952 H         214.7157  214.8398  118.5390 H        60        0    0.0000
    953 H         154.0208  250.2565  152.0842 H         0        0    0.0000
@<TRIPOS>BOND
     1     1     2      1
     2     1     6      1
     3     1     8      1
     4     1     9      1
     5     2     3      1
     6     2    10      1
     7     2    11      1
     8     3     4      1
     9     3     5      1
    10     3    12      1
    11     4    13      1
    12     4    14      1
    13     4   953      H
    14     5     6      1
    15     5    15      1
    16     5    16      1
    17     6     7      1
    18     6    17      1
    19     7    18      1
    20     7    19      1
    21     7    23      1
    22    20    21      1
    23    20    25      1
    24    20    27      1
    25    20    28      1
    26    21    22      1
    27    21    29      1
    28    21    30      1
    29    22    23      1
    30    22    24      1
    31    22    31      1
    32    23    32      1
    33    23    33      1
    34    24    25      1
    35    24    34      1
    36    24    35      1
    37    25    26      1
    38    25    36      1
    39    26    37      1
    40    26    38      1
    41    26    39      1
    42    39    40      1
    43    39    41      1
    44    39    42      1
    45    40    43      1
    46    40    44      1
    47    40    48      1
    48    45    46      1
    49    45    50      1
    50    45    52      1
    51    45    53      1
    52    46    47      1
    53    46    54      1
    54    46    55      1
    55    47    48      1
    56    47    49      1
    57    47    56      1
    58    48    57      1
    59    48    58      1
    60    49    50      1
    61    49    59      1
    62    49    60      1
    63    50    51      1
    64    50    61      1
    65    51    62      1
    66    51    63      1
    67    51    64      1
    68    64    65      1
    69    64    66      1
    70    64    67      1
    71    65    68      1
    72    65    69      1
    73    65    73      1
    74    70    71      1
    75    70    75      1
    76    70    77      1
    77    70    78      1
    78    71    72      1
    79    71    79      1
    80    71    80      1
    81    72    73      1
    82    72    74      1
    83    72    81      1
    84    73    82      1
    85    73    83      1
    86    74    75      1
    87    74    84      1
    88    74    85      1
    89    75    76      1
    90    75    86      1
    91    76    87      1
    92    76    88      1
    93    76    92      1
    94    89    90      1
    95    89    94      1
    96    89    96      1
    97    89    97      1
    98    90    91      1
    99    90    98      1
   100    90    99      1
   101    91    92      1
   102    91    93      1
   103    91   100      1
   104    92   101      1
   105    92   102      1
   106    93    94      1
   107    93   103      1
   108    93   104      1
   109    94    95      1
   110    94   105      1
   111    95   106      1
   112    95   107      1
   113    95   108      1
   114   108   109      1
   115   108   110      1
   116   108   111      1
   117   109   112      1
   118   109   113      1
   119   109   114      1
   120   114   115      1
   121   114   116      1
   122   114   117      1
   123   115   118      1
   124   115   119      1
   125   115   120      1
   126   120   121      1
   127   120   122      1
   128   120   123      1
   129   121   124      1
   130   121   125      1
   131   121   126      1
   132   126   127      1
   133   126   128      1
   134   126   129      1
   135   127   130      1
   136   127   131      1
   137   127   135      1
   138   132   133      1
   139   132   137      1
   140   132   139      1
   141   132   140      1
   142   133   134      1
   143   133   141      1
   144   133   142      1
   145   134   135      1
   146   134   136      1
   147   134   143      1
   148   135   144      1
   149   135   145      1
   150   136   137      1
   151   136   146      1
   152   136   147      1
   153   137   138      1
   154   137   148      1
   155   138   149      1
   156   138   150      1
   157   138   154      1
   158   151   152      1
   159   151   156      1
   160   151   158      1
   161   151   159      1
   162   152   153      1
   163   152   160      1
   164   152   161      1
   165   153   154      1
   166   153   155      1
   167   153   162      1
   168   154   163      1
   169   154   164      1
   170   155   156      1
   171   155   165      1
   172   155   166      1
   173   156   157      1
   174   156   167      1
   175   157   168      1
   176   157   169      1
   177   157   170      1
   178   170   171      1
   179   170   172      1
   180   170   173      1
   181   171   174      1
   182   171   175      1
   183   171   179      1
   184   176   177      1
   185   176   181      1
   186   176   183      1
   187   176   184      1
   188   177   178      1
   189   177   185      1
   190   177   186      1
   191   178   179      1
   192   178   180      1
   193   178   187      1
   194   179   188      1
   195   179   189      1
   196   180   181      1
   197   180   190      1
   198   180   191      1
   199   181   182      1
   200   181   192      1
   201   182   193      1
   202   182   194      1
   203   182   195      1
   204   195   196      1
   205   195   197      1
   206   195   198      1
   207   196   199      1
   208   196   200      1
   209   196   204      1
   210   201   202      1
   211   201   206      1
   212   201   208      1
   213   201   209      1
   214   202   203      1
   215   202   210      1
   216   202   211      1
   217   203   204      1
   218   203   205      1
   219   203   212      1
   220   204   213      1
   221   204   214      1
   222   205   206      1
   223   205   215      1
   224   205   216      1
   225   206   207      1
   226   206   217      1
   227   207   218      1
   228   207   219      1
   229   207   223      1
   230   220   221      1
   231   220   225      1
   232   220   227      1
   233   220   228      1
   234   221   222      1
   235   221   229      1
   236   221   230      1
   237   222   223      1
   238   222   224      1
   239   222   231      1
   240   223   232      1
   241   223   233      1
   242   224   225      1
   243   224   234      1
   244   224   235      1
   245   225   226      1
   246   225   236      1
   247   226   237      1
   248   226   238      1
   249   226   242      1
   250   239   240      1
   251   239   244      1
   252   239   246      1
   253   239   247      1
   254   240   241      1
   255   240   248      1
   256   240   249      1
   257   241   242      1
   258   241   243      1
   259   241   250      1
   260   242   251      1
   261   242   252      1
   262   243   244      1
   263   243   253      1
   264   243   254      1
   265   244   245      1
   266   244   255      1
   267   245   256      1
   268   245   257      1
   269   245   261      1
   270   258   259      1
   271   258   263      1
   272   258   265      1
   273   258   266      1
   274   259   260      1
   275   259   267      1
   276   259   268      1
   277   260   261      1
   278   260   262      1
   279   260   269      1
   280   261   270      1
   281   261   271      1
   282   262   263      1
   283   262   272      1
   284   262   273      1
   285   263   264      1
   286   263   274      1
   287   264   275      1
   288   264   276      1
   289   264   277      1
   290   277   278      1
   291   277   279      1
   292   277   280      1
   293   278   281      1
   294   278   282      1
   295   278   286      1
   296   283   284      1
   297   283   288      1
   298   283   290      1
   299   283   291      1
   300   284   285      1
   301   284   292      1
   302   284   293      1
   303   285   286      1
   304   285   287      1
   305   285   294      1
   306   286   295      1
   307   286   296      1
   308   287   288      1
   309   287   297      1
   310   287   298      1
   311   288   289      1
   312   288   299      1
   313   289   300      1
   314   289   301      1
   315   289   305      1
   316   302   303      1
   317   302   307      1
   318   302   309      1
   319   302   310      1
   320   303   304      1
   321   303   311      1
   322   303   312      1
   323   304   305      1
   324   304   306      1
   325   304   313      1
   326   305   314      1
   327   305   315      1
   328   306   307      1
   329   306   316      1
   330   306   317      1
   331   307   308      1
   332   307   318      1
   333   308   319      1
   334   308   320      1
   335   308   324      1
   336   321   322      1
   337   321   326      1
   338   321   328      1
   339   321   329      1
   340   322   323      1
   341   322   330      1
   342   322   331      1
   343   323   324      1
   344   323   325      1
   345   323   332      1
   346   324   333      1
   347   324   334      1
   348   325   326      1
   349   325   335      1
   350   325   336      1
   351   326   327      1
   352   326   337      1
   353   327   338      1
   354   327   339      1
   355   327   343      1
   356   340   341      1
   357   340   345      1
   358   340   347      1
   359   340   348      1
   360   341   342      1
   361   341   349      1
   362   341   350      1
   363   342   343      1
   364   342   344      1
   365   342   351      1
   366   343   352      1
   367   343   353      1
   368   344   345      1
   369   344   354      1
   370   344   355      1
   371   345   346      1
   372   345   356      1
   373   346   357      1
   374   346   358      1
   375   346   362      1
   376   359   360      1
   377   359   364      1
   378   359   366      1
   379   359   367      1
   380   360   361      1
   381   360   368      1
   382   360   369      1
   383   361   362      1
   384   361   363      1
   385   361   370      1
   386   362   371      1
   387   362   372      1
   388   363   364      1
   389   363   373      1
   390   363   374      1
   391   364   365      1
   392   364   375      1
   393   365   376      1
   394   365   377      1
   395   365   381      1
   396   378   379      1
   397   378   383      1
   398   378   385      1
   399   378   386      1
   400   379   380      1
   401   379   387      1
   402   379   388      1
   403   380   381      1
   404   380   382      1
   405   380   389      1
   406   381   390      1
   407   381   391      1
   408   382   383      1
   409   382   392      1
   410   382   393      1
   411   383   384      1
   412   383   394      1
   413   384   395      1
   414   384   396      1
   415   384   397      1
   416   397   398      1
   417   397   399      1
   418   397   400      1
   419   398   401      1
   420   398   402      1
   421   398   406      1
   422   403   404      1
   423   403   408      1
   424   403   410      1
   425   403   411      1
   426   404   405      1
   427   404   412      1
   428   404   413      1
   429   405   406      1
   430   405   407      1
   431   405   414      1
   432   406   415      1
   433   406   416      1
   434   407   408      1
   435   407   417      1
   436   407   418      1
   437   408   409      1
   438   408   419      1
   439   409   420      1
   440   409   421      1
   441   409   425      1
   442   422   423      1
   443   422   427      1
   444   422   429      1
   445   422   430      1
   446   423   424      1
   447   423   431      1
   448   423   432      1
   449   424   425      1
   450   424   426      1
   451   424   433      1
   452   425   434      1
   453   425   435      1
   454   426   427      1
   455   426   436      1
   456   426   437      1
   457   427   428      1
   458   427   438      1
   459   428   439      1
   460   428   440      1
   461   428   444      1
   462   441   442      1
   463   441   446      1
   464   441   448      1
   465   441   449      1
   466   442   443      1
   467   442   450      1
   468   442   451      1
   469   443   444      1
   470   443   445      1
   471   443   452      1
   472   444   453      1
   473   444   454      1
   474   445   446      1
   475   445   455      1
   476   445   456      1
   477   446   447      1
   478   446   457      1
   479   447   458      1
   480   447   459      1
   481   447   463      1
   482   460   461      1
   483   460   465      1
   484   460   467      1
   485   460   468      1
   486   461   462      1
   487   461   469      1
   488   461   470      1
   489   462   463      1
   490   462   464      1
   491   462   471      1
   492   463   472      1
   493   463   473      1
   494   464   465      1
   495   464   474      1
   496   464   475      1
   497   465   466      1
   498   465   476      1
   499   466   477      1
   500   466   478      1
   501   466   479      1
   502   479   480      1
   503   479   481      1
   504   479   482      1
   505   480   483      1
   506   480   484      1
   507   480   488      1
   508   485   486      1
   509   485   490      1
   510   485   492      1
   511   485   493      1
   512   486   487      1
   513   486   494      1
   514   486   495      1
   515   487   488      1
   516   487   489      1
   517   487   496      1
   518   488   497      1
   519   488   498      1
   520   489   490      1
   521   489   499      1
   522   489   500      1
   523   490   491      1
   524   490   501      1
   525   491   502      1
   526   491   503      1
   527   491   507      1
   528   504   505      1
   529   504   509      1
   530   504   511      1
   531   504   512      1
   532   505   506      1
   533   505   513      1
   534   505   514      1
   535   506   507      1
   536   506   508      1
   537   506   515      1
   538   507   516      1
   539   507   517      1
   540   508   509      1
   541   508   518      1
   542   508   519      1
   543   509   510      1
   544   509   520      1
   545   510   521      1
   546   510   522      1
   547   510   526      1
   548   523   524      1
   549   523   528      1
   550   523   530      1
   551   523   531      1
   552   524   525      1
   553   524   532      1
   554   524   533      1
   555   525   526      1
   556   525   527      1
   557   525   534      1
   558   526   535      1
   559   526   536      1
   560   527   528      1
   561   527   537      1
   562   527   538      1
   563   528   529      1
   564   528   539      1
   565   529   540      1
   566   529   541      1
   567   529   545      1
   568   542   543      1
   569   542   547      1
   570   542   549      1
   571   542   550      1
   572   543   544      1
   573   543   551      1
   574   543   552      1
   575   544   545      1
   576   544   546      1
   577   544   553      1
   578   545   554      1
   579   545   555      1
   580   546   547      1
   581   546   556      1
   582   546   557      1
   583   547   548      1
   584   547   558      1
   585   548   559      1
   586   548   560      1
   587   548   564      1
   588   561   562      1
   589   561   566      1
   590   561   568      1
   591   561   569      1
   592   562   563      1
   593   562   570      1
   594   562   571      1
   595   563   564      1
   596   563   565      1
   597   563   572      1
   598   564   573      1
   599   564   574      1
   600   565   566      1
   601   565   575      1
   602   565   576      1
   603   566   567      1
   604   566   577      1
   605   567   578      1
   606   567   579      1
   607   567   583      1
   608   580   581      1
   609   580   585      1
   610   580   587      1
   611   580   588      1
   612   581   582      1
   613   581   589      1
   614   581   590      1
   615   582   583      1
   616   582   584      1
   617   582   591      1
   618   583   592      1
   619   583   593      1
   620   584   585      1
   621   584   594      1
   622   584   595      1
   623   585   586      1
   624   585   596      1
   625   586   597      1
   626   586   598      1
   627   586   602      1
   628   599   600      1
   629   599   604      1
   630   599   606      1
   631   599   607      1
   632   600   601      1
   633   600   608      1
   634   600   609      1
   635   601   602      1
   636   601   603      1
   637   601   610      1
   638   602   611      1
   639   602   612      1
   640   603   604      1
   641   603   613      1
   642   603   614      1
   643   604   605      1
   644   604   615      1
   645   605   616      1
   646   605   617      1
   647   605   621      1
   648   618   619      1
   649   618   623      1
   650   618   625      1
   651   618   626      1
   652   619   620      1
   653   619   627      1
   654   619   628      1
   655   620   621      1
   656   620   622      1
   657   620   629      1
   658   621   630      1
   659   621   631      1
   660   622   623      1
   661   622   632      1
   662   622   633      1
   663   623   624      1
   664   623   634      1
   665   624   635      1
   666   624   636      1
   667   624   640      1
   668   637   638      1
   669   637   642      1
   670   637   644      1
   671   637   645      1
   672   638   639      1
   673   638   646      1
   674   638   647      1
   675   639   640      1
   676   639   641      1
   677   639   648      1
   678   640   649      1
   679   640   650      1
   680   641   642      1
   681   641   651      1
   682   641   652      1
   683   642   643      1
   684   642   653      1
   685   643   654      1
   686   643   655      1
   687   643   659      1
   688   656   657      1
   689   656   661      1
   690   656   663      1
   691   656   664      1
   692   657   658      1
   693   657   665      1
   694   657   666      1
   695   658   659      1
   696   658   660      1
   697   658   667      1
   698   659   668      1
   699   659   669      1
   700   660   661      1
   701   660   670      1
   702   660   671      1
   703   661   662      1
   704   661   672      1
   705   662   673      1
   706   662   674      1
   707   662   675      1
   708   675   676      1
   709   675   677      1
   710   675   678      1
   711   676   679      1
   712   676   680      1
   713   676   684      1
   714   681   682      1
   715   681   686      1
   716   681   688      1
   717   681   689      1
   718   682   683      1
   719   682   690      1
   720   682   691      1
   721   683   684      1
   722   683   685      1
   723   683   692      1
   724   684   693      1
   725   684   694      1
   726   685   686      1
   727   685   695      1
   728   685   696      1
   729   686   687      1
   730   686   697      1
   731   687   698      1
   732   687   699      1
   733   687   703      1
   734   700   701      1
   735   700   705      1
   736   700   707      1
   737   700   708      1
   738   701   702      1
   739   701   709      1
   740   701   710      1
   741   702   703      1
   742   702   704      1
   743   702   711      1
   744   703   712      1
   745   703   713      1
   746   704   705      1
   747   704   714      1
   748   704   715      1
   749   705   706      1
   750   705   716      1
   751   706   717      1
   752   706   718      1
   753   706   722      1
   754   719   720      1
   755   719   724      1
   756   719   726      1
   757   719   727      1
   758   720   721      1
   759   720   728      1
   760   720   729      1
   761   721   722      1
   762   721   723      1
   763   721   730      1
   764   722   731      1
   765   722   732      1
   766   723   724      1
   767   723   733      1
   768   723   734      1
   769   724   725      1
   770   724   735      1
   771   725   736      1
   772   725   737      1
   773   725   741      1
   774   738   739      1
   775   738   743      1
   776   738   745      1
   777   738   746      1
   778   739   740      1
   779   739   747      1
   780   739   748      1
   781   740   741      1
   782   740   742      1
   783   740   749      1
   784   741   750      1
   785   741   751      1
   786   742   743      1
   787   742   752      1
   788   742   753      1
   789   743   744      1
   790   743   754      1
   791   744   755      1
   792   744   756      1
   793   744   760      1
   794   757   758      1
   795   757   762      1
   796   757   764      1
   797   757   765      1
   798   758   759      1
   799   758   766      1
   800   758   767      1
   801   759   760      1
   802   759   761      1
   803   759   768      1
   804   760   769      1
   805   760   770      1
   806   761   762      1
   807   761   771      1
   808   761   772      1
   809   762   763      1
   810   762   773      1
   811   763   774      1
   812   763   775      1
   813   763   779      1
   814   776   777      1
   815   776   781      1
   816   776   783      1
   817   776   784      1
   818   777   778      1
   819   777   785      1
   820   777   786      1
   821   778   779      1
   822   778   780      1
   823   778   787      1
   824   779   788      1
   825   779   789      1
   826   780   781      1
   827   780   790      1
   828   780   791      1
   829   781   782      1
   830   781   792      1
   831   782   793      1
   832   782   794      1
   833   782   795      1
   834   795   796      1
   835   795   797      1
   836   795   798      1
   837   796   799      1
   838   796   800      1
   839   796   804      1
   840   801   802      1
   841   801   806      1
   842   801   808      1
   843   801   809      1
   844   802   803      1
   845   802   810      1
   846   802   811      1
   847   803   804      1
   848   803   805      1
   849   803   812      1
   850   804   813      1
   851   804   814      1
   852   805   806      1
   853   805   815      1
   854   805   816      1
   855   806   807      1
   856   806   817      1
   857   807   818      1
   858   807   819      1
   859   807   823      1
   860   820   821      1
   861   820   825      1
   862   820   827      1
   863   820   828      1
   864   821   822      1
   865   821   829      1
   866   821   830      1
   867   822   823      1
   868   822   824      1
   869   822   831      1
   870   823   832      1
   871   823   833      1
   872   824   825      1
   873   824   834      1
   874   824   835      1
   875   825   826      1
   876   825   836      1
   877   826   837      1
   878   826   838      1
   879   826   839      1
   880   839   840      1
   881   839   841      1
   882   839   842      1
   883   840   843      1
   884   840   844      1
   885   840   848      1
   886   845   846      1
   887   845   850      1
   888   845   852      1
   889   845   853      1
   890   846   847      1
   891   846   854      1
   892   846   855      1
   893   847   848      1
   894   847   849      1
   895   847   856      1
   896   848   857      1
   897   848   858      1
   898   849   850      1
   899   849   859      1
   900   849   860      1
   901   850   851      1
   902   850   861      1
   903   851   862      1
   904   851   863      1
   905   851   867      1
   906   864   865      1
   907   864   869      1
   908   864   871      1
   909   864   872      1
   910   865   866      1
   911   865   873      1
   912   865   874      1
   913   866   867      1
   914   866   868      1
   915   866   875      1
   916   867   876      1
   917   867   877      1
   918   868   869      1
   919   868   878      1
   920   868   879      1
   921   869   870      1
   922   869   880      1
   923   870   881      1
   924   870   882      1
   925   870   883      1
   926   883   884      1
   927   883   885      1
   928   883   886      1
   929   884   887      1
   930   884   888      1
   931   884   892      1
   932   889   890      1
   933   889   894      1
   934   889   896      1
   935   889   897      1
   936   890   891      1
   937   890   898      1
   938   890   899      1
   939   891   892      1
   940   891   893      1
   941   891   900      1
   942   892   901      1
   943   892   902      1
   944   893   894      1
   945   893   903      1
   946   893   904      1
   947   894   895      1
   948   894   905      1
   949   895   906      1
   950   895   907      1
   951   895   908      1
   952   908   909      1
   953   908   910      1
   954   908   911      1
   955   909   912      1
   956   909   913      1
   957   909   917      1
   958   914   915      1
   959   914   919      1
   960   914   921      1
   961   914   922      1
   962   915   916      1
   963   915   923      1
   964   915   924      1
   965   916   917      1
   966   916   918      1
   967   916   925      1
   968   917   926      1
   969   917   927      1
   970   918   919      1
   971   918   928      1
   972   918   929      1
   973   919   920      1
   974   919   930      1
   975   920   931      1
   976   920   932      1
   977   920   936      1
   978   933   934      1
   979   933   938      1
   980   933   940      1
   981   933   941      1
   982   934   935      1
   983   934   942      1
   984   934   943      1
   985   935   936      1
   986   935   937      1
   987   935   944      1
   988   936   945      1
   989   936   946      1
   990   937   938      1
   991   937   947      1
   992   937   948      1
   993   938   939      1
   994   938   949      1
   995   939   950      1
   996   939   951      1
   997   939   952      H
