###
### Created by PolyChef-cpp17 on Wed Feb 26 21:14:12 2025
###

@<TRIPOS>MOLECULE
NO_INFO
1525 1595 1 0 0
SMALL
USER_CHARGES


@<TRIPOS>ATOM
      1 C         195.8163   99.5004   80.2881 C.3       0        0    0.0000
      2 C         196.1391   98.4658   79.2191 C.3       0        0    0.0000
      3 C         196.9437   99.2726   78.1947 C.3       0        0    0.0000
      4 C         197.0804   98.6287   76.8116 C.3       0        0    0.0000
      5 C         196.3241  100.6837   78.2124 C.3       0        0    0.0000
      6 C         195.4270  100.7326   79.4647 C.3       0        0    0.0000
      7 C         195.4299  102.0608   80.2276 C.3       0        0    0.0000
      8 H         195.0046   99.1709   80.9441 H         0        0    0.0000
      9 H         196.7019   99.6815   80.9072 H         0        0    0.0000
     10 H         196.7126   97.6258   79.6231 H         0        0    0.0000
     11 H         195.2099   98.0704   78.7943 H         0        0    0.0000
     12 H         197.9638   99.3705   78.5959 H         0        0    0.0000
     13 H         196.0895   98.3132   76.4641 H         0        0    0.0000
     14 H         197.4389   99.3815   76.0996 H         0        0    0.0000
     15 H         195.7218  100.8954   77.3223 H         0        0    0.0000
     16 H         197.1221  101.4337   78.2308 H         0        0    0.0000
     17 H         194.3943  100.5725   79.1200 H         0        0    0.0000
     18 H         195.2302  101.8652   81.2878 H         0        0    0.0000
     19 H         196.4313  102.5039   80.1721 H         0        0    0.0000
     20 C         191.4174  102.7350   81.8938 C.3       1        0    0.0000
     21 C         192.7132  102.0967   81.3878 C.3       1        0    0.0000
     22 C         192.9515  102.6484   79.9707 C.3       1        0    0.0000
     23 C         194.3929  103.1007   79.7065 C.3       1        0    0.0000
     24 C         191.9455  103.7958   79.8334 C.3       1        0    0.0000
     25 C         190.7382  103.3519   80.6663 C.3       1        0    0.0000
     26 C         189.8362  102.3581   79.9101 C.3       1        0    0.0000
     27 H         190.7912  102.0156   82.4300 H         1        0    0.0000
     28 H         191.6705  103.5329   82.6038 H         1        0    0.0000
     29 H         193.5355  102.3216   82.0760 H         1        0    0.0000
     30 H         192.6118  101.0058   81.3501 H         1        0    0.0000
     31 H         192.6795  101.8675   79.2463 H         1        0    0.0000
     32 H         194.5412  103.2294   78.6277 H         1        0    0.0000
     33 H         194.5796  104.0757   80.1714 H         1        0    0.0000
     34 H         191.6906  103.9946   78.7874 H         1        0    0.0000
     35 H         192.3607  104.7204   80.2550 H         1        0    0.0000
     36 H         190.1492  104.2308   80.9578 H         1        0    0.0000
     37 H         189.4964  101.5515   80.5691 H         1        0    0.0000
     38 H         190.4094  101.8888   79.1017 H         1        0    0.0000
     39 C         188.6001  103.0637   79.2806 C.3       2        0    0.0000
     40 C         187.2551  102.4404   79.6806 C.3       2        0    0.0000
     41 H         188.6131  104.1021   79.6357 H         2        0    0.0000
     42 H         188.7128  103.1037   78.1908 H         2        0    0.0000
     43 H         186.5436  102.4581   78.8468 H         2        0    0.0000
     44 H         187.4281  101.3841   79.9231 H         2        0    0.0000
     45 C         184.3581  106.0112   80.4655 C.3       3        0    0.0000
     46 C         185.1904  104.9183   79.7902 C.3       3        0    0.0000
     47 C         186.3511  104.5943   80.7477 C.3       3        0    0.0000
     48 C         186.6015  103.0943   80.9470 C.3       3        0    0.0000
     49 C         185.9776  105.3021   82.0542 C.3       3        0    0.0000
     50 C         185.2191  106.5573   81.6096 C.3       3        0    0.0000
     51 C         186.1654  107.6898   81.1679 C.3       3        0    0.0000
     52 H         184.0344  106.7756   79.7527 H         3        0    0.0000
     53 H         183.4508  105.5565   80.8835 H         3        0    0.0000
     54 H         184.5613  104.0478   79.5740 H         3        0    0.0000
     55 H         185.5867  105.2772   78.8332 H         3        0    0.0000
     56 H         187.2641  105.0637   80.3543 H         3        0    0.0000
     57 H         187.2744  102.9487   81.8005 H         3        0    0.0000
     58 H         185.6650  102.5788   81.1893 H         3        0    0.0000
     59 H         186.8583  105.5307   82.6630 H         3        0    0.0000
     60 H         185.3140  104.6677   82.6561 H         3        0    0.0000
     61 H         184.5826  106.9124   82.4300 H         3        0    0.0000
     62 H         185.7881  108.1935   80.2710 H         3        0    0.0000
     63 H         187.1430  107.2667   80.9082 H         3        0    0.0000
     64 C         186.3767  108.7394   82.2973 C.3       4        0    0.0000
     65 C         186.0860  110.1847   81.8682 C.3       4        0    0.0000
     66 H         185.6825  108.4783   83.1063 H         4        0    0.0000
     67 H         187.3882  108.6412   82.7084 H         4        0    0.0000
     68 H         186.9871  110.6748   81.4812 H         4        0    0.0000
     69 H         185.3649  110.1558   81.0413 H         4        0    0.0000
     70 C         184.1541  108.0533   83.1392 C.3       5        0    0.0000
     71 C         183.6102  109.3677   82.5728 C.3       5        0    0.0000
     72 C         184.1131  110.4827   83.4963 C.3       5        0    0.0000
     73 C         185.4470  111.0677   82.9954 C.3       5        0    0.0000
     74 C         184.2026  109.7638   84.8484 C.3       5        0    0.0000
     75 C         184.7713  108.3840   84.5082 C.3       5        0    0.0000
     76 C         184.4830  107.3488   85.6014 C.3       5        0    0.0000
     77 H         183.3443  107.3184   83.2116 H         5        0    0.0000
     78 H         184.9156  107.6323   82.4727 H         5        0    0.0000
     79 H         182.5136  109.3389   82.6037 H         5        0    0.0000
     80 H         183.8971  109.5116   81.5262 H         5        0    0.0000
     81 H         183.3683  111.2873   83.5475 H         5        0    0.0000
     82 H         186.1538  111.1214   83.8323 H         5        0    0.0000
     83 H         185.3190  112.0917   82.6287 H         5        0    0.0000
     84 H         183.1957  109.6656   85.2750 H         5        0    0.0000
     85 H         184.8197  110.2890   85.5835 H         5        0    0.0000
     86 H         185.8592  108.4784   84.3837 H         5        0    0.0000
     87 H         185.3662  107.2073   86.2351 H         5        0    0.0000
     88 H         184.2663  106.3795   85.1369 H         5        0    0.0000
     89 C         180.9102  109.8284   84.3895 C.3       6        0    0.0000
     90 C         182.1489  108.9389   84.5240 C.3       6        0    0.0000
     91 C         182.5985  109.0449   85.9872 C.3       6        0    0.0000
     92 C         183.2703  107.7619   86.4841 C.3       6        0    0.0000
     93 C         181.3061  109.4150   86.7226 C.3       6        0    0.0000
     94 C         180.6629  110.4349   85.7771 C.3       6        0    0.0000
     95 C         179.1780  110.7006   86.0399 C.3       6        0    0.0000
     96 H         181.0599  110.6122   83.6393 H         6        0    0.0000
     97 H         180.0588  109.2211   84.0595 H         6        0    0.0000
     98 H         182.9463  109.2577   83.8441 H         6        0    0.0000
     99 H         181.8883  107.9075   84.2580 H         6        0    0.0000
    100 H         183.3020  109.8863   86.0693 H         6        0    0.0000
    101 H         182.5394  106.9444   86.4771 H         6        0    0.0000
    102 H         183.5994  107.8826   87.5228 H         6        0    0.0000
    103 H         181.5057  109.8422   87.7104 H         6        0    0.0000
    104 H         180.6613  108.5364   86.8503 H         6        0    0.0000
    105 H         181.2246  111.3780   85.8438 H         6        0    0.0000
    106 H         178.5852  110.4599   85.1496 H         6        0    0.0000
    107 H         179.0310  111.7691   86.2381 H         6        0    0.0000
    108 C         178.6391  109.8944   87.2534 C.3       7        0    0.0000
    109 C         178.6911  110.6598   88.5834 C.3       7        0    0.0000
    110 H         177.5891  109.6595   87.0366 H         7        0    0.0000
    111 H         179.1666  108.9360   87.3238 H         7        0    0.0000
    112 H         179.0850  111.6735   88.4452 H         7        0    0.0000
    113 H         177.6635  110.7702   88.9530 H         7        0    0.0000
    114 C         179.5006  109.9271   89.7088 C.3       8        0    0.0000
    115 C         178.6601  109.5500   90.9371 C.3       8        0    0.0000
    116 H         180.2879  110.6191   90.0344 H         8        0    0.0000
    117 H         180.0078  109.0509   89.2883 H         8        0    0.0000
    118 H         178.6692  110.4010   91.6302 H         8        0    0.0000
    119 H         177.6119  109.3781   90.6657 H         8        0    0.0000
    120 C         179.2100  108.3144   91.7304 C.3       9        0    0.0000
    121 C         178.4255  107.9959   93.0113 C.3       9        0    0.0000
    122 H         179.1340  107.4484   91.0604 H         9        0    0.0000
    123 H         180.2767  108.4552   91.9407 H         9        0    0.0000
    124 H         178.9737  107.2941   93.6507 H         9        0    0.0000
    125 H         178.3187  108.9254   93.5851 H         9        0    0.0000
    126 C         176.9768  107.4545   92.7530 C.3      10        0    0.0000
    127 C         176.0850  107.4379   94.0028 C.3      10        0    0.0000
    128 H         177.0833  106.4218   92.3970 H        10        0    0.0000
    129 H         176.5107  108.0205   91.9380 H        10        0    0.0000
    130 H         176.1046  106.4235   94.4216 H        10        0    0.0000
    131 H         176.4751  108.1054   94.7801 H        10        0    0.0000
    132 C         171.8860  107.0139   96.2844 C.3      11        0    0.0000
    133 C         172.9603  106.5434   95.3138 C.3      11        0    0.0000
    134 C         173.7010  107.8396   94.9692 C.3      11        0    0.0000
    135 C         174.5818  107.7807   93.7174 C.3      11        0    0.0000
    136 C         172.6193  108.9375   94.9695 C.3      11        0    0.0000
    137 C         171.3805  108.3060   95.6344 C.3      11        0    0.0000
    138 C         170.5787  109.2338   96.5524 C.3      11        0    0.0000
    139 H         171.0888  106.2735   96.4021 H        11        0    0.0000
    140 H         172.3307  107.1946   97.2692 H        11        0    0.0000
    141 H         173.6226  105.7991   95.7665 H        11        0    0.0000
    142 H         172.4909  106.0905   94.4335 H        11        0    0.0000
    143 H         174.3723  108.0574   95.8136 H        11        0    0.0000
    144 H         174.1744  107.0317   93.0280 H        11        0    0.0000
    145 H         174.5329  108.7456   93.1990 H        11        0    0.0000
    146 H         172.3595  109.2795   93.9619 H        11        0    0.0000
    147 H         172.9899  109.8164   95.5079 H        11        0    0.0000
    148 H         170.7019  108.0092   94.8204 H        11        0    0.0000
    149 H         170.8317  110.2747   96.3187 H        11        0    0.0000
    150 H         169.5101  109.1136   96.3385 H        11        0    0.0000
    151 C         169.9654  111.2947  100.9361 C.3      12        0    0.0000
    152 C         170.3907  109.9236  100.4043 C.3      12        0    0.0000
    153 C         169.9065  109.8566   98.9499 C.3      12        0    0.0000
    154 C         170.8152  108.9905   98.0732 C.3      12        0    0.0000
    155 C         169.8379  111.3308   98.5375 C.3      12        0    0.0000
    156 C         169.2418  111.9991   99.7809 C.3      12        0    0.0000
    157 C         169.4099  113.5203   99.8302 C.3      12        0    0.0000
    158 H         169.3113  111.1999  101.8096 H        12        0    0.0000
    159 H         170.8532  111.8543  101.2543 H        12        0    0.0000
    160 H         169.9590  109.1119  100.9997 H        12        0    0.0000
    161 H         171.4813  109.8293  100.4689 H        12        0    0.0000
    162 H         168.8872  109.4437   98.9469 H        12        0    0.0000
    163 H         170.6263  107.9324   98.2906 H        12        0    0.0000
    164 H         171.8680  109.1794   98.3137 H        12        0    0.0000
    165 H         169.2104  111.4792   97.6530 H        12        0    0.0000
    166 H         170.8386  111.7252   98.3211 H        12        0    0.0000
    167 H         168.1738  111.7432   99.8388 H        12        0    0.0000
    168 H         169.1166  113.9665   98.8727 H        12        0    0.0000
    169 H         170.4687  113.7627   99.9808 H        12        0    0.0000
    170 C         168.5867  114.1689  100.9767 C.3      13        0    0.0000
    171 C         169.4153  114.5114  102.2231 C.3      13        0    0.0000
    172 H         168.1695  115.1026  100.5781 H        13        0    0.0000
    173 H         167.7343  113.5271  101.2284 H        13        0    0.0000
    174 H         170.4723  114.2570  102.0817 H        13        0    0.0000
    175 H         169.3715  115.5978  102.3731 H        13        0    0.0000
    176 C         167.1310  111.1445  101.7886 C.3      14        0    0.0000
    177 C         168.4136  111.9695  101.8822 C.3      14        0    0.0000
    178 C         168.5816  112.3573  103.3615 C.3      14        0    0.0000
    179 C         168.8846  113.8505  103.5423 C.3      14        0    0.0000
    180 C         167.2808  111.8962  104.0368 C.3      14        0    0.0000
    181 C         166.8177  110.6863  103.2153 C.3      14        0    0.0000
    182 C         167.5409  109.3727  103.5644 C.3      14        0    0.0000
    183 H         166.3191  111.7903  101.4302 H        14        0    0.0000
    184 H         167.2243  110.3179  101.0774 H        14        0    0.0000
    185 H         168.3583  112.8384  101.2172 H        14        0    0.0000
    186 H         169.2735  111.3710  101.5590 H        14        0    0.0000
    187 H         169.4161  111.7706  103.7710 H        14        0    0.0000
    188 H         169.6140  113.9964  104.3475 H        14        0    0.0000
    189 H         167.9689  114.3715  103.8466 H        14        0    0.0000
    190 H         167.4280  111.6651  105.0964 H        14        0    0.0000
    191 H         166.5194  112.6846  103.9751 H        14        0    0.0000
    192 H         165.7354  110.5443  103.3286 H        14        0    0.0000
    193 H         168.6270  109.4803  103.4721 H        14        0    0.0000
    194 H         167.2414  108.5954  102.8510 H        14        0    0.0000
    195 C         167.1882  108.8742  104.9944 C.3      15        0    0.0000
    196 C         166.8913  107.3700  105.0751 C.3      15        0    0.0000
    197 H         168.0604  109.0835  105.6270 H        15        0    0.0000
    198 H         166.3589  109.4668  105.3982 H        15        0    0.0000
    199 H         166.5430  106.9799  104.1116 H        15        0    0.0000
    200 H         167.8301  106.8494  105.3036 H        15        0    0.0000
    201 C         165.1262  107.7201  109.7191 C.3      16        0    0.0000
    202 C         166.1431  107.1438  108.7350 C.3      16        0    0.0000
    203 C         165.9662  107.9153  107.4157 C.3      16        0    0.0000
    204 C         165.8725  106.9813  106.2019 C.3      16        0    0.0000
    205 C         164.7180  108.7840  107.6350 C.3      16        0    0.0000
    206 C         164.6978  109.0716  109.1416 C.3      16        0    0.0000
    207 C         165.6432  110.2049  109.5801 C.3      16        0    0.0000
    208 H         164.2557  107.0530  109.7612 H        16        0    0.0000
    209 H         165.5296  107.7896  110.7342 H        16        0    0.0000
    210 H         165.9948  106.0643  108.6210 H        16        0    0.0000
    211 H         167.1616  107.2907  109.1131 H        16        0    0.0000
    212 H         166.8359  108.5761  107.2925 H        16        0    0.0000
    213 H         164.8542  106.9851  105.7961 H        16        0    0.0000
    214 H         166.0828  105.9529  106.5194 H        16        0    0.0000
    215 H         164.7375  109.6920  107.0244 H        16        0    0.0000
    216 H         163.8127  108.2253  107.3641 H        16        0    0.0000
    217 H         163.6766  109.3060  109.4682 H        16        0    0.0000
    218 H         165.8487  110.8933  108.7533 H        16        0    0.0000
    219 H         166.6076  109.7756  109.8773 H        16        0    0.0000
    220 C         161.8892  111.5807  108.8611 C.3      17        0    0.0000
    221 C         163.4143  111.6501  108.9751 C.3      17        0    0.0000
    222 C         163.7338  111.6630  110.4758 C.3      17        0    0.0000
    223 C         165.0782  111.0012  110.7904 C.3      17        0    0.0000
    224 C         162.5183  110.9664  111.0966 C.3      17        0    0.0000
    225 C         161.3507  111.5547  110.2975 C.3      17        0    0.0000
    226 C         160.0397  110.7720  110.4135 C.3      17        0    0.0000
    227 H         161.4899  112.4373  108.3074 H        17        0    0.0000
    228 H         161.6052  110.6764  108.3096 H        17        0    0.0000
    229 H         163.8124  112.5430  108.4811 H        17        0    0.0000
    230 H         163.8576  110.7789  108.4780 H        17        0    0.0000
    231 H         163.7489  112.7095  110.8138 H        17        0    0.0000
    232 H         164.9536  110.3116  111.6339 H        17        0    0.0000
    233 H         165.8092  111.7555  111.1042 H        17        0    0.0000
    234 H         162.4287  111.1771  112.1670 H        17        0    0.0000
    235 H         162.5778  109.8790  110.9626 H        17        0    0.0000
    236 H         161.1912  112.5932  110.6225 H        17        0    0.0000
    237 H         160.1742  109.7482  110.0453 H        17        0    0.0000
    238 H         159.2809  111.2404  109.7754 H        17        0    0.0000
    239 C         160.9656  113.2847  114.1315 C.3      18        0    0.0000
    240 C         160.9575  112.6835  112.7239 C.3      18        0    0.0000
    241 C         160.5567  111.2055  112.8788 C.3      18        0    0.0000
    242 C         159.5028  110.7311  111.8706 C.3      18        0    0.0000
    243 C         160.0713  111.0912  114.3274 C.3      18        0    0.0000
    244 C         160.9275  112.0990  115.1018 C.3      18        0    0.0000
    245 C         162.3257  111.5464  115.4376 C.3      18        0    0.0000
    246 H         161.8184  113.9530  114.2841 H        18        0    0.0000
    247 H         160.0575  113.8868  114.2636 H        18        0    0.0000
    248 H         160.2716  113.2453  112.0803 H        18        0    0.0000
    249 H         161.9546  112.7534  112.2735 H        18        0    0.0000
    250 H         161.4613  110.5898  112.7724 H        18        0    0.0000
    251 H         159.2134  109.7000  112.1059 H        18        0    0.0000
    252 H         158.5958  111.3414  111.9490 H        18        0    0.0000
    253 H         160.1643  110.0703  114.7117 H        18        0    0.0000
    254 H         159.0141  111.3776  114.3998 H        18        0    0.0000
    255 H         160.4141  112.3818  116.0296 H        18        0    0.0000
    256 H         162.8490  112.1977  116.1464 H        18        0    0.0000
    257 H         162.9333  111.5150  114.5254 H        18        0    0.0000
    258 C         158.6133  110.7182  116.4109 C.3      19        0    0.0000
    259 C         159.9477  110.4734  117.1197 C.3      19        0    0.0000
    260 C         160.8038  109.6227  116.1644 C.3      19        0    0.0000
    261 C         162.2525  110.1052  116.0204 C.3      19        0    0.0000
    262 C         160.0424  109.6576  114.8354 C.3      19        0    0.0000
    263 C         158.5658  109.7321  115.2387 C.3      19        0    0.0000
    264 C         157.9929  108.3560  115.6279 C.3      19        0    0.0000
    265 H         157.7654  110.6298  117.0969 H        19        0    0.0000
    266 H         158.6043  111.7434  116.0191 H        19        0    0.0000
    267 H         160.4174  111.4297  117.3749 H        19        0    0.0000
    268 H         159.7870  109.9307  118.0585 H        19        0    0.0000
    269 H         160.8031  108.5862  116.5311 H        19        0    0.0000
    270 H         162.7356  110.1029  117.0048 H        19        0    0.0000
    271 H         162.8233  109.4185  115.3848 H        19        0    0.0000
    272 H         160.2690  108.7880  114.2100 H        19        0    0.0000
    273 H         160.3114  110.5557  114.2645 H        19        0    0.0000
    274 H         157.9791  110.1512  114.4114 H        19        0    0.0000
    275 H         158.2920  108.0759  116.6440 H        19        0    0.0000
    276 H         158.3962  107.5903  114.9546 H        19        0    0.0000
    277 C         156.4407  108.3256  115.5213 C.3      20        0    0.0000
    278 C         155.8270  106.9364  115.7473 C.3      20        0    0.0000
    279 H         156.0565  108.9981  116.2990 H        20        0    0.0000
    280 H         156.1280  108.7481  114.5592 H        20        0    0.0000
    281 H         156.2003  106.2114  115.0146 H        20        0    0.0000
    282 H         156.1479  106.5789  116.7341 H        20        0    0.0000
    283 C         152.9164  108.0019  118.9920 C.3      21        0    0.0000
    284 C         154.1577  107.8999  118.1069 C.3      21        0    0.0000
    285 C         153.6728  108.0195  116.6517 C.3      21        0    0.0000
    286 C         154.2590  106.9254  115.7498 C.3      21        0    0.0000
    287 C         152.1395  107.9972  116.7474 C.3      21        0    0.0000
    288 C         151.8210  108.6140  118.1152 C.3      21        0    0.0000
    289 C         151.8647  110.1528  118.1388 C.3      21        0    0.0000
    290 H         152.6134  106.9917  119.2959 H        21        0    0.0000
    291 H         153.1090  108.5706  119.9071 H        21        0    0.0000
    292 H         154.6908  106.9631  118.3031 H        21        0    0.0000
    293 H         154.8517  108.7184  118.3317 H        21        0    0.0000
    294 H         153.9860  109.0023  116.2719 H        21        0    0.0000
    295 H         153.8875  107.0374  114.7246 H        21        0    0.0000
    296 H         153.9201  105.9443  116.1038 H        21        0    0.0000
    297 H         151.6686  108.5301  115.9155 H        21        0    0.0000
    298 H         151.7715  106.9631  116.7255 H        21        0    0.0000
    299 H         150.8368  108.2750  118.4630 H        21        0    0.0000
    300 H         152.8400  110.5277  117.8104 H        21        0    0.0000
    301 H         151.7257  110.5021  119.1692 H        21        0    0.0000
    302 C         147.7775  109.8623  115.3078 C.3      22        0    0.0000
    303 C         149.2592  110.2326  115.2612 C.3      22        0    0.0000
    304 C         149.8837  109.7182  116.5697 C.3      22        0    0.0000
    305 C         150.7447  110.7823  117.2629 C.3      22        0    0.0000
    306 C         148.6909  109.2342  117.4086 C.3      22        0    0.0000
    307 C         147.6458  108.7795  116.3819 C.3      22        0    0.0000
    308 C         147.8959  107.3730  115.8079 C.3      22        0    0.0000
    309 H         147.2006  110.7450  115.6121 H        22        0    0.0000
    310 H         147.4000  109.5513  114.3287 H        22        0    0.0000
    311 H         149.3787  111.3134  115.1276 H        22        0    0.0000
    312 H         149.7444  109.7469  114.4064 H        22        0    0.0000
    313 H         150.5141  108.8518  116.3245 H        22        0    0.0000
    314 H         150.1180  111.4369  117.8796 H        22        0    0.0000
    315 H         151.2152  111.4184  116.5035 H        22        0    0.0000
    316 H         148.9761  108.4442  118.1101 H        22        0    0.0000
    317 H         148.2781  110.0635  117.9977 H        22        0    0.0000
    318 H         146.6414  108.8166  116.8228 H        22        0    0.0000
    319 H         148.4924  106.7635  116.4952 H        22        0    0.0000
    320 H         148.4767  107.4594  114.8815 H        22        0    0.0000
    321 C         144.7583  107.9302  118.4443 C.3      23        0    0.0000
    322 C         146.0706  107.3596  117.9008 C.3      23        0    0.0000
    323 C         145.6971  106.4419  116.7229 C.3      23        0    0.0000
    324 C         146.5691  106.6333  115.4759 C.3      23        0    0.0000
    325 C         144.2199  106.7471  116.4544 C.3      23        0    0.0000
    326 C         143.6385  107.0817  117.8322 C.3      23        0    0.0000
    327 C         143.3155  105.8204  118.6556 C.3      23        0    0.0000
    328 H         144.7466  107.9541  119.5381 H        23        0    0.0000
    329 H         144.6540  108.9667  118.0989 H        23        0    0.0000
    330 H         146.7414  108.1751  117.6089 H        23        0    0.0000
    331 H         146.5844  106.7794  118.6761 H        23        0    0.0000
    332 H         145.7740  105.3985  117.0608 H        23        0    0.0000
    333 H         146.8143  105.6529  115.0503 H        23        0    0.0000
    334 H         146.0192  107.1857  114.7052 H        23        0    0.0000
    335 H         143.7095  105.9086  115.9696 H        23        0    0.0000
    336 H         144.1239  107.6196  115.7951 H        23        0    0.0000
    337 H         142.7278  107.6821  117.7113 H        23        0    0.0000
    338 H         143.2889  106.0439  119.7278 H        23        0    0.0000
    339 H         144.1056  105.0752  118.5049 H        23        0    0.0000
    340 C         141.7589  106.8466  114.8176 C.3      24        0    0.0000
    341 C         142.5727  106.1784  115.9170 C.3      24        0    0.0000
    342 C         141.4935  105.5800  116.8252 C.3      24        0    0.0000
    343 C         141.9613  105.1832  118.2288 C.3      24        0    0.0000
    344 C         140.3202  106.5780  116.7732 C.3      24        0    0.0000
    345 C         140.6253  107.5235  115.5950 C.3      24        0    0.0000
    346 C         139.4147  107.9464  114.7571 C.3      24        0    0.0000
    347 H         142.3546  107.5670  114.2485 H        24        0    0.0000
    348 H         141.3854  106.0882  114.1209 H        24        0    0.0000
    349 H         143.2464  105.4131  115.5193 H        24        0    0.0000
    350 H         143.1790  106.9286  116.4365 H        24        0    0.0000
    351 H         141.1443  104.6562  116.3396 H        24        0    0.0000
    352 H         141.1926  105.4692  118.9565 H        24        0    0.0000
    353 H         142.0537  104.0919  118.2807 H        24        0    0.0000
    354 H         140.2170  107.1621  117.6940 H        24        0    0.0000
    355 H         139.3796  106.0309  116.6476 H        24        0    0.0000
    356 H         141.0420  108.4449  116.0290 H        24        0    0.0000
    357 H         139.3972  109.0400  114.6799 H        24        0    0.0000
    358 H         139.5320  107.5605  113.7376 H        24        0    0.0000
    359 C         138.4715  106.8346  119.0169 C.3      25        0    0.0000
    360 C         138.8022  107.5948  117.7416 C.3      25        0    0.0000
    361 C         138.1877  106.7164  116.6499 C.3      25        0    0.0000
    362 C         138.0451  107.4625  115.3210 C.3      25        0    0.0000
    363 C         136.8598  106.2407  117.2671 C.3      25        0    0.0000
    364 C         137.0253  106.3741  118.7950 C.3      25        0    0.0000
    365 C         136.5947  105.1500  119.6130 C.3      25        0    0.0000
    366 H         138.5676  107.4662  119.9056 H        25        0    0.0000
    367 H         139.1611  105.9910  119.1294 H        25        0    0.0000
    368 H         138.3363  108.5876  117.7598 H        25        0    0.0000
    369 H         139.8807  107.7247  117.6101 H        25        0    0.0000
    370 H         138.8349  105.8383  116.5097 H        25        0    0.0000
    371 H         137.5548  106.8219  114.5784 H        25        0    0.0000
    372 H         137.3950  108.3341  115.4628 H        25        0    0.0000
    373 H         136.0229  106.8714  116.9424 H        25        0    0.0000
    374 H         136.6291  105.2189  116.9476 H        25        0    0.0000
    375 H         136.3727  107.2020  119.1100 H        25        0    0.0000
    376 H         136.4820  105.4428  120.6636 H        25        0    0.0000
    377 H         137.3946  104.4007  119.5799 H        25        0    0.0000
    378 C         133.6468  104.7072  115.8016 C.3      26        0    0.0000
    379 C         134.9625  104.7488  116.5827 C.3      26        0    0.0000
    380 C         134.6237  105.2785  117.9876 C.3      26        0    0.0000
    381 C         135.2721  104.4877  119.1306 C.3      26        0    0.0000
    382 C         133.0933  105.2448  118.0497 C.3      26        0    0.0000
    383 C         132.6425  105.5324  116.6136 C.3      26        0    0.0000
    384 C         132.6802  107.0349  116.2757 C.3      26        0    0.0000
    385 H         133.7733  105.0544  114.7717 H        26        0    0.0000
    386 H         133.2995  103.6673  115.7500 H        26        0    0.0000
    387 H         135.4187  103.7530  116.6018 H        26        0    0.0000
    388 H         135.6756  105.4224  116.0931 H        26        0    0.0000
    389 H         134.9447  106.3283  118.0472 H        26        0    0.0000
    390 H         134.5780  104.4392  119.9781 H        26        0    0.0000
    391 H         135.4664  103.4548  118.8196 H        26        0    0.0000
    392 H         132.6963  105.9652  118.7723 H        26        0    0.0000
    393 H         132.7449  104.2480  118.3498 H        26        0    0.0000
    394 H         131.6250  105.1497  116.4637 H        26        0    0.0000
    395 H         133.0763  107.2043  115.2684 H        26        0    0.0000
    396 H         133.3531  107.5480  116.9731 H        26        0    0.0000
    397 C         131.2726  107.6885  116.3920 C.3      27        0    0.0000
    398 C         131.0262  108.4060  117.7268 C.3      27        0    0.0000
    399 H         131.2010  108.4317  115.5876 H        27        0    0.0000
    400 H         130.4990  106.9372  116.1942 H        27        0    0.0000
    401 H         131.9701  108.6780  118.2136 H        27        0    0.0000
    402 H         130.4997  109.3457  117.5161 H        27        0    0.0000
    403 C         130.7910  104.0220  119.7857 C.3      28        0    0.0000
    404 C         131.2491  105.4693  119.6897 C.3      28        0    0.0000
    405 C         130.3013  106.0769  118.6477 C.3      28        0    0.0000
    406 C         130.1287  107.5990  118.7278 C.3      28        0    0.0000
    407 C         128.9979  105.2572  118.7413 C.3      28        0    0.0000
    408 C         129.2659  104.1435  119.7701 C.3      28        0    0.0000
    409 C         128.5837  102.8086  119.4609 C.3      28        0    0.0000
    410 H         131.1515  103.4515  118.9211 H        28        0    0.0000
    411 H         131.1582  103.5356  120.6945 H        28        0    0.0000
    412 H         131.1498  105.9504  120.6687 H        28        0    0.0000
    413 H         132.2970  105.5467  119.3834 H        28        0    0.0000
    414 H         130.7340  105.8661  117.6584 H        28        0    0.0000
    415 H         129.0782  107.8484  118.5365 H        28        0    0.0000
    416 H         130.3495  107.9313  119.7491 H        28        0    0.0000
    417 H         128.7682  104.8381  117.7537 H        28        0    0.0000
    418 H         128.1326  105.8586  119.0392 H        28        0    0.0000
    419 H         128.9390  104.5023  120.7570 H        28        0    0.0000
    420 H         128.7620  102.5257  118.4167 H        28        0    0.0000
    421 H         129.0298  102.0217  120.0806 H        28        0    0.0000
    422 C         126.4441  106.3143  121.1557 C.3      29        0    0.0000
    423 C         127.3997  105.2113  120.7227 C.3      29        0    0.0000
    424 C         126.4868  104.2508  119.9535 C.3      29        0    0.0000
    425 C         127.0526  102.8455  119.7271 C.3      29        0    0.0000
    426 C         125.1293  104.3113  120.6808 C.3      29        0    0.0000
    427 C         125.2077  105.5346  121.6150 C.3      29        0    0.0000
    428 C         123.9204  106.3557  121.7373 C.3      29        0    0.0000
    429 H         126.8648  106.9280  121.9583 H        29        0    0.0000
    430 H         126.2256  106.9696  120.3053 H        29        0    0.0000
    431 H         128.2117  105.5958  120.0980 H        29        0    0.0000
    432 H         127.8441  104.7391  121.6058 H        29        0    0.0000
    433 H         126.3307  104.6891  118.9562 H        29        0    0.0000
    434 H         126.8326  102.2254  120.6041 H        29        0    0.0000
    435 H         126.5361  102.3838  118.8772 H        29        0    0.0000
    436 H         124.9223  103.4123  121.2714 H        29        0    0.0000
    437 H         124.3225  104.3892  119.9441 H        29        0    0.0000
    438 H         125.4294  105.1494  122.6218 H        29        0    0.0000
    439 H         123.8192  106.7111  122.7696 H        29        0    0.0000
    440 H         124.0023  107.2469  121.1039 H        29        0    0.0000
    441 C         123.3530  101.8828  121.5340 C.3      30        0    0.0000
    442 C         123.5392  103.3100  122.0259 C.3      30        0    0.0000
    443 C         122.9142  104.1431  120.9049 C.3      30        0    0.0000
    444 C         122.6267  105.5805  121.3456 C.3      30        0    0.0000
    445 C         121.6696  103.3333  120.4975 C.3      30        0    0.0000
    446 C         121.9312  101.8846  120.9583 C.3      30        0    0.0000
    447 C         121.6466  100.7996  119.9120 C.3      30        0    0.0000
    448 H         123.4657  101.1540  122.3428 H        30        0    0.0000
    449 H         124.1069  101.6568  120.7722 H        30        0    0.0000
    450 H         123.0064  103.4578  122.9731 H        30        0    0.0000
    451 H         124.5940  103.5544  122.1842 H        30        0    0.0000
    452 H         123.6107  104.1529  120.0539 H        30        0    0.0000
    453 H         122.1075  106.1241  120.5475 H        30        0    0.0000
    454 H         121.9500  105.5664  122.2084 H        30        0    0.0000
    455 H         120.7694  103.7102  120.9988 H        30        0    0.0000
    456 H         121.4904  103.4157  119.4203 H        30        0    0.0000
    457 H         121.2449  101.6935  121.7969 H        30        0    0.0000
    458 H         121.7081   99.8152  120.3910 H        30        0    0.0000
    459 H         122.4331  100.8268  119.1484 H        30        0    0.0000
    460 C         118.1361  104.0649  119.2528 C.3      31        0    0.0000
    461 C         119.4467  103.3725  118.9117 C.3      31        0    0.0000
    462 C         119.3937  102.0792  119.7349 C.3      31        0    0.0000
    463 C         120.2652  100.9316  119.2089 C.3      31        0    0.0000
    464 C         117.8955  101.7507  119.8995 C.3      31        0    0.0000
    465 C         117.1281  102.9138  119.2446 C.3      31        0    0.0000
    466 C         115.8178  103.2891  119.9413 C.3      31        0    0.0000
    467 H         118.1987  104.5292  120.2445 H        31        0    0.0000
    468 H         117.8823  104.8424  118.5258 H        31        0    0.0000
    469 H         119.4874  103.1755  117.8350 H        31        0    0.0000
    470 H         120.3137  103.9877  119.1724 H        31        0    0.0000
    471 H         119.7737  102.3214  120.7385 H        31        0    0.0000
    472 H         119.7197   99.9877  119.3270 H        31        0    0.0000
    473 H         120.4265  101.0684  118.1330 H        31        0    0.0000
    474 H         117.6625  101.6738  120.9688 H        31        0    0.0000
    475 H         117.6125  100.7958  119.4441 H        31        0    0.0000
    476 H         116.9228  102.6434  118.1985 H        31        0    0.0000
    477 H         115.1860  103.8787  119.2664 H        31        0    0.0000
    478 H         115.2589  102.3759  120.1778 H        31        0    0.0000
    479 C         116.0484  104.0874  121.2550 C.3      32        0    0.0000
    480 C         114.7562  104.5919  121.9134 C.3      32        0    0.0000
    481 H         116.5445  103.4054  121.9573 H        32        0    0.0000
    482 H         116.7489  104.9101  121.0693 H        32        0    0.0000
    483 H         114.7117  104.3103  122.9720 H        32        0    0.0000
    484 H         114.7632  105.6889  121.8806 H        32        0    0.0000
    485 C         111.0076  103.6406  123.8865 C.3      33        0    0.0000
    486 C         112.2913  104.3465  123.4523 C.3      33        0    0.0000
    487 C         112.1813  104.5669  121.9336 C.3      33        0    0.0000
    488 C         113.4471  104.1257  121.1871 C.3      33        0    0.0000
    489 C         110.9126  103.8059  121.5189 C.3      33        0    0.0000
    490 C         110.0021  103.8559  122.7524 C.3      33        0    0.0000
    491 C         109.2331  105.1797  122.9154 C.3      33        0    0.0000
    492 H         111.2108  102.5670  123.9901 H        33        0    0.0000
    493 H         110.6502  103.9970  124.8576 H        33        0    0.0000
    494 H         113.1677  103.7532  123.7348 H        33        0    0.0000
    495 H         112.3811  105.3148  123.9587 H        33        0    0.0000
    496 H         112.0189  105.6400  121.7596 H        33        0    0.0000
    497 H         113.4376  104.5103  120.1606 H        33        0    0.0000
    498 H         113.4620  103.0315  121.1149 H        33        0    0.0000
    499 H         110.4497  104.2361  120.6254 H        33        0    0.0000
    500 H         111.1532  102.7590  121.2926 H        33        0    0.0000
    501 H         109.2876  103.0232  122.7290 H        33        0    0.0000
    502 H         109.8336  106.0321  122.5803 H        33        0    0.0000
    503 H         109.0207  105.3450  123.9787 H        33        0    0.0000
    504 C         109.1105  102.6588  119.6152 C.3      34        0    0.0000
    505 C         109.3208  103.8700  120.5110 C.3      34        0    0.0000
    506 C         107.8971  104.2299  120.9406 C.3      34        0    0.0000
    507 C         107.8788  105.1662  122.1514 C.3      34        0    0.0000
    508 C         107.2285  102.8627  121.1736 C.3      34        0    0.0000
    509 C         108.0506  101.8398  120.3627 C.3      34        0    0.0000
    510 C         107.2311  100.8788  119.4922 C.3      34        0    0.0000
    511 H         110.0361  102.0932  119.4690 H        34        0    0.0000
    512 H         108.7601  102.9879  118.6310 H        34        0    0.0000
    513 H         109.9389  103.5999  121.3759 H        34        0    0.0000
    514 H         109.8132  104.6910  119.9809 H        34        0    0.0000
    515 H         107.3944  104.7175  120.0925 H        34        0    0.0000
    516 H         107.6316  106.1869  121.8365 H        34        0    0.0000
    517 H         107.0881  104.8498  122.8421 H        34        0    0.0000
    518 H         107.2567  102.5828  122.2341 H        34        0    0.0000
    519 H         106.1734  102.8937  120.8821 H        34        0    0.0000
    520 H         108.5844  101.2156  121.0948 H        34        0    0.0000
    521 H         107.5535   99.8502  119.6931 H        34        0    0.0000
    522 H         107.4536  101.0771  118.4370 H        34        0    0.0000
    523 C         104.8790  104.5414  120.6195 C.3      35        0    0.0000
    524 C         105.8767  103.4706  120.1703 C.3      35        0    0.0000
    525 C         105.3025  102.1254  120.6339 C.3      35        0    0.0000
    526 C         105.6926  100.9741  119.7030 C.3      35        0    0.0000
    527 C         103.7969  102.3988  120.7150 C.3      35        0    0.0000
    528 C         103.7436  103.7987  121.3359 C.3      35        0    0.0000
    529 C         102.3967  104.5118  121.1871 C.3      35        0    0.0000
    530 H         105.3501  105.2737  121.2840 H        35        0    0.0000
    531 H         104.5107  105.0879  119.7429 H        35        0    0.0000
    532 H         106.8693  103.6430  120.6000 H        35        0    0.0000
    533 H         105.9842  103.5064  119.0795 H        35        0    0.0000
    534 H         105.6775  101.9241  121.6480 H        35        0    0.0000
    535 H         105.2153  101.1204  118.7266 H        35        0    0.0000
    536 H         105.3188  100.0222  120.0980 H        35        0    0.0000
    537 H         103.2793  101.6577  121.3322 H        35        0    0.0000
    538 H         103.3425  102.3944  119.7163 H        35        0    0.0000
    539 H         104.0044  103.7200  122.4014 H        35        0    0.0000
    540 H         102.5341  105.4876  120.7068 H        35        0    0.0000
    541 H         101.9778  104.7053  122.1819 H        35        0    0.0000
    542 C         103.1034  102.7272  117.1260 C.3      36        0    0.0000
    543 C         103.0077  103.6038  118.3669 C.3      36        0    0.0000
    544 C         101.9889  102.8576  119.2346 C.3      36        0    0.0000
    545 C         101.3717  103.6749  120.3736 C.3      36        0    0.0000
    546 C         100.9858  102.2390  118.2414 C.3      36        0    0.0000
    547 C         101.6407  102.3625  116.8517 C.3      36        0    0.0000
    548 C         101.4251  101.1723  115.9119 C.3      36        0    0.0000
    549 H         103.5596  103.2580  116.2847 H        36        0    0.0000
    550 H         103.7146  101.8443  117.3429 H        36        0    0.0000
    551 H         103.9749  103.7101  118.8679 H        36        0    0.0000
    552 H         102.6574  104.6035  118.0876 H        36        0    0.0000
    553 H         102.5244  102.0196  119.7059 H        36        0    0.0000
    554 H         100.6144  104.3512  119.9595 H        36        0    0.0000
    555 H         100.8481  102.9971  121.0582 H        36        0    0.0000
    556 H         100.0187  102.7532  118.2372 H        36        0    0.0000
    557 H         100.7823  101.2009  118.5254 H        36        0    0.0000
    558 H         101.1810  103.2343  116.3622 H        36        0    0.0000
    559 H         102.0633  101.2933  115.0286 H        36        0    0.0000
    560 H         101.7535  100.2547  116.4144 H        36        0    0.0000
    561 C          98.0624  104.1607  115.7971 C.3      37        0    0.0000
    562 C          99.3596  103.4084  116.1040 C.3      37        0    0.0000
    563 C          98.9921  101.9165  116.1954 C.3      37        0    0.0000
    564 C          99.9509  100.9857  115.4427 C.3      37        0    0.0000
    565 C          97.5610  101.8418  115.6536 C.3      37        0    0.0000
    566 C          96.9224  103.1723  116.0661 C.3      37        0    0.0000
    567 C          96.4567  103.1703  117.5345 C.3      37        0    0.0000
    568 H          97.9854  105.0901  116.3694 H        37        0    0.0000
    569 H          98.0566  104.4359  114.7346 H        37        0    0.0000
    570 H         100.1058  103.6163  115.3292 H        37        0    0.0000
    571 H          99.7804  103.7470  117.0580 H        37        0    0.0000
    572 H          98.9705  101.6309  117.2569 H        37        0    0.0000
    573 H          99.6588   99.9437  115.6191 H        37        0    0.0000
    574 H          99.8811  101.1567  114.3622 H        37        0    0.0000
    575 H          97.0205  100.9723  116.0417 H        37        0    0.0000
    576 H          97.5706  101.7645  114.5587 H        37        0    0.0000
    577 H          96.0680  103.3887  115.4123 H        37        0    0.0000
    578 H          96.4841  104.1797  117.9597 H        37        0    0.0000
    579 H          97.1394  102.5544  118.1319 H        37        0    0.0000
    580 C          93.1258   99.8601  115.8621 C.3      38        0    0.0000
    581 C          93.8769  100.3381  117.0954 C.3      38        0    0.0000
    582 C          94.6313  101.5775  116.5977 C.3      38        0    0.0000
    583 C          95.0217  102.5872  117.6845 C.3      38        0    0.0000
    584 C          93.7835  102.1452  115.4407 C.3      38        0    0.0000
    585 C          92.6133  101.1637  115.2464 C.3      38        0    0.0000
    586 C          92.1667  100.9794  113.7939 C.3      38        0    0.0000
    587 H          93.8091   99.3413  115.1787 H        38        0    0.0000
    588 H          92.3117   99.1752  116.1182 H        38        0    0.0000
    589 H          93.1616  100.5807  117.8886 H        38        0    0.0000
    590 H          94.5577   99.5728  117.4813 H        38        0    0.0000
    591 H          95.5728  101.2231  116.1520 H        38        0    0.0000
    592 H          94.3035  103.4157  117.6749 H        38        0    0.0000
    593 H          94.9347  102.1077  118.6668 H        38        0    0.0000
    594 H          94.4052  102.2050  114.5387 H        38        0    0.0000
    595 H          93.4115  103.1563  115.6367 H        38        0    0.0000
    596 H          91.7643  101.5185  115.8488 H        38        0    0.0000
    597 H          92.8603  100.3139  113.2665 H        38        0    0.0000
    598 H          91.1858  100.4897  113.7759 H        38        0    0.0000
    599 C          89.9186  104.2872  115.4732 C.3      39        0    0.0000
    600 C          90.7494  103.0577  115.1330 C.3      39        0    0.0000
    601 C          91.4627  103.4738  113.8424 C.3      39        0    0.0000
    602 C          92.0659  102.3270  113.0256 C.3      39        0    0.0000
    603 C          90.4552  104.3663  113.0915 C.3      39        0    0.0000
    604 C          89.3506  104.7030  114.1123 C.3      39        0    0.0000
    605 C          88.7964  106.1291  114.0391 C.3      39        0    0.0000
    606 H          89.1291  104.0598  116.1962 H        39        0    0.0000
    607 H          90.5627  105.0611  115.9049 H        39        0    0.0000
    608 H          91.4555  102.8080  115.9310 H        39        0    0.0000
    609 H          90.0900  102.1963  114.9802 H        39        0    0.0000
    610 H          92.3015  104.1227  114.1366 H        39        0    0.0000
    611 H          91.4618  102.1737  112.1234 H        39        0    0.0000
    612 H          93.0683  102.6158  112.6881 H        39        0    0.0000
    613 H          90.0112  103.8690  112.2224 H        39        0    0.0000
    614 H          90.9677  105.2559  112.7099 H        39        0    0.0000
    615 H          88.5074  104.0288  113.8991 H        39        0    0.0000
    616 H          89.4005  106.7813  114.6809 H        39        0    0.0000
    617 H          88.9073  106.5046  113.0150 H        39        0    0.0000
    618 C          86.6491  103.3766  112.2139 C.3      40        0    0.0000
    619 C          87.0760  104.8430  112.3145 C.3      40        0    0.0000
    620 C          86.3836  105.4183  113.5630 C.3      40        0    0.0000
    621 C          87.3017  106.2576  114.4602 C.3      40        0    0.0000
    622 C          85.8224  104.1910  114.2882 C.3      40        0    0.0000
    623 C          85.4595  103.2124  113.1660 C.3      40        0    0.0000
    624 C          84.1072  103.5476  112.5087 C.3      40        0    0.0000
    625 H          86.4321  103.0854  111.1818 H        40        0    0.0000
    626 H          87.4764  102.7435  112.5594 H        40        0    0.0000
    627 H          88.1682  104.9130  112.3632 H        40        0    0.0000
    628 H          86.7555  105.3956  111.4235 H        40        0    0.0000
    629 H          85.5366  106.0370  113.2336 H        40        0    0.0000
    630 H          87.0104  107.3126  114.3921 H        40        0    0.0000
    631 H          87.1852  105.9630  115.5095 H        40        0    0.0000
    632 H          84.9678  104.4452  114.9235 H        40        0    0.0000
    633 H          86.5911  103.7421  114.9305 H        40        0    0.0000
    634 H          85.4284  102.1905  113.5648 H        40        0    0.0000
    635 H          84.0976  104.5734  112.1240 H        40        0    0.0000
    636 H          83.3112  103.4817  113.2599 H        40        0    0.0000
    637 C          80.6036  101.1234  110.0492 C.3      41        0    0.0000
    638 C          81.9295  101.8071  109.7066 C.3      41        0    0.0000
    639 C          82.3004  102.6805  110.9186 C.3      41        0    0.0000
    640 C          83.7661  102.5615  111.3541 C.3      41        0    0.0000
    641 C          81.3276  102.2414  112.0178 C.3      41        0    0.0000
    642 C          80.0448  101.8636  111.2694 C.3      41        0    0.0000
    643 C          79.1986  103.0953  110.8951 C.3      41        0    0.0000
    644 H          79.9218  101.1049  109.1936 H        41        0    0.0000
    645 H          80.8047  100.0797  110.3227 H        41        0    0.0000
    646 H          82.6909  101.0539  109.4759 H        41        0    0.0000
    647 H          81.8155  102.4359  108.8159 H        41        0    0.0000
    648 H          82.0819  103.7285  110.6683 H        41        0    0.0000
    649 H          83.9601  101.5394  111.7007 H        41        0    0.0000
    650 H          84.4340  102.7407  110.5037 H        41        0    0.0000
    651 H          81.1692  103.0275  112.7632 H        41        0    0.0000
    652 H          81.7176  101.3600  112.5432 H        41        0    0.0000
    653 H          79.4455  101.1827  111.8869 H        41        0    0.0000
    654 H          78.3875  102.8248  110.2100 H        41        0    0.0000
    655 H          79.8285  103.8240  110.3712 H        41        0    0.0000
    656 C          78.3382  101.6536  115.1275 C.3      42        0    0.0000
    657 C          78.8381  101.7627  113.6878 C.3      42        0    0.0000
    658 C          79.1968  103.2408  113.4563 C.3      42        0    0.0000
    659 C          78.6001  103.7887  112.1533 C.3      42        0    0.0000
    660 C          78.7091  103.9642  114.7210 C.3      42        0    0.0000
    661 C          78.8196  102.9203  115.8396 C.3      42        0    0.0000
    662 C          80.2411  102.7511  116.4062 C.3      42        0    0.0000
    663 H          77.2408  101.6374  115.1217 H        42        0    0.0000
    664 H          78.6725  100.7300  115.6103 H        42        0    0.0000
    665 H          78.0778  101.3941  112.9905 H        42        0    0.0000
    666 H          79.7308  101.1416  113.5486 H        42        0    0.0000
    667 H          80.2923  103.3183  113.4087 H        42        0    0.0000
    668 H          78.7577  104.8715  112.0879 H        42        0    0.0000
    669 H          77.5156  103.6262  112.1553 H        42        0    0.0000
    670 H          79.2855  104.8724  114.9224 H        42        0    0.0000
    671 H          77.6579  104.2603  114.6090 H        42        0    0.0000
    672 H          78.1315  103.1685  116.6578 H        42        0    0.0000
    673 H          80.7914  101.9692  115.8719 H        42        0    0.0000
    674 H          80.1765  102.4292  117.4526 H        42        0    0.0000
    675 C          81.0497  104.0785  116.3608 C.3      43        0    0.0000
    676 C          82.4109  104.0043  117.0673 C.3      43        0    0.0000
    677 H          81.2277  104.3050  115.3017 H        43        0    0.0000
    678 H          80.4383  104.8973  116.7579 H        43        0    0.0000
    679 H          82.2948  103.7797  118.1341 H        43        0    0.0000
    680 H          82.9760  103.1708  116.6309 H        43        0    0.0000
    681 C          82.0181  107.1598  113.8368 C.3      44        0    0.0000
    682 C          82.1656  105.8696  114.6312 C.3      44        0    0.0000
    683 C          82.6666  106.3621  115.9928 C.3      44        0    0.0000
    684 C          83.2913  105.2897  116.8906 C.3      44        0    0.0000
    685 C          83.5664  107.5736  115.6802 C.3      44        0    0.0000
    686 C          83.2850  107.9370  114.2091 C.3      44        0    0.0000
    687 C          83.2536  109.4356  113.8934 C.3      44        0    0.0000
    688 H          81.9522  106.9721  112.7606 H        44        0    0.0000
    689 H          81.1072  107.6834  114.1473 H        44        0    0.0000
    690 H          81.2175  105.3291  114.7127 H        44        0    0.0000
    691 H          82.8906  105.2125  114.1383 H        44        0    0.0000
    692 H          81.7904  106.7505  116.5336 H        44        0    0.0000
    693 H          84.2629  104.9968  116.4754 H        44        0    0.0000
    694 H          83.4882  105.7204  117.8795 H        44        0    0.0000
    695 H          84.6325  107.3559  115.8059 H        44        0    0.0000
    696 H          83.3343  108.3902  116.3723 H        44        0    0.0000
    697 H          84.1073  107.5099  113.6153 H        44        0    0.0000
    698 H          83.1840  109.5713  112.8076 H        44        0    0.0000
    699 H          82.3456  109.8737  114.3245 H        44        0    0.0000
    700 C          87.2595  107.6674  114.4677 C.3      45        0    0.0000
    701 C          85.7978  108.0510  114.2228 C.3      45        0    0.0000
    702 C          85.5379  109.3120  115.0573 C.3      45        0    0.0000
    703 C          84.4891  110.2267  114.4186 C.3      45        0    0.0000
    704 C          86.9317  109.9346  115.1909 C.3      45        0    0.0000
    705 C          87.8220  108.7126  115.4400 C.3      45        0    0.0000
    706 C          89.3182  108.9593  115.2277 C.3      45        0    0.0000
    707 H          87.3440  106.6579  114.8842 H        45        0    0.0000
    708 H          87.8027  107.6722  113.5150 H        45        0    0.0000
    709 H          85.1180  107.2420  114.5114 H        45        0    0.0000
    710 H          85.6439  108.2387  113.1534 H        45        0    0.0000
    711 H          85.1968  108.9985  116.0547 H        45        0    0.0000
    712 H          84.9421  110.7646  113.5773 H        45        0    0.0000
    713 H          84.1580  110.9854  115.1373 H        45        0    0.0000
    714 H          86.9817  110.6521  116.0161 H        45        0    0.0000
    715 H          87.2218  110.4503  114.2669 H        45        0    0.0000
    716 H          87.6481  108.3551  116.4654 H        45        0    0.0000
    717 H          89.6869  108.3601  114.3870 H        45        0    0.0000
    718 H          89.8691  108.6295  116.1167 H        45        0    0.0000
    719 C          90.9584  111.8345  118.2489 C.3      46        0    0.0000
    720 C          90.4939  110.6509  117.4140 C.3      46        0    0.0000
    721 C          89.7436  111.3071  116.2481 C.3      46        0    0.0000
    722 C          89.6400  110.4578  114.9749 C.3      46        0    0.0000
    723 C          90.3884  112.6965  116.0663 C.3      46        0    0.0000
    724 C          91.4297  112.8354  117.1919 C.3      46        0    0.0000
    725 C          91.5737  114.2496  117.7598 C.3      46        0    0.0000
    726 H          90.1224  112.2391  118.8323 H        46        0    0.0000
    727 H          91.7582  111.5578  118.9425 H        46        0    0.0000
    728 H          91.3639  110.0780  117.0753 H        46        0    0.0000
    729 H          89.8502  109.9752  117.9859 H        46        0    0.0000
    730 H          88.7119  111.4822  116.5881 H        46        0    0.0000
    731 H          88.8612  110.8796  114.3283 H        46        0    0.0000
    732 H          90.5823  110.5292  114.4190 H        46        0    0.0000
    733 H          89.6097  113.4649  116.1490 H        46        0    0.0000
    734 H          90.8591  112.8267  115.0861 H        46        0    0.0000
    735 H          92.4011  112.4953  116.8045 H        46        0    0.0000
    736 H          91.6216  114.9814  116.9448 H        46        0    0.0000
    737 H          90.6834  114.4949  118.3510 H        46        0    0.0000
    738 C          92.8273  111.0157  120.3819 C.3      47        0    0.0000
    739 C          92.2702  111.9661  119.3313 C.3      47        0    0.0000
    740 C          93.2975  113.1029  119.3197 C.3      47        0    0.0000
    741 C          92.8301  114.4048  118.6620 C.3      47        0    0.0000
    742 C          93.7778  113.2306  120.7787 C.3      47        0    0.0000
    743 C          93.2736  111.9647  121.4989 C.3      47        0    0.0000
    744 C          94.2357  111.3629  122.5277 C.3      47        0    0.0000
    745 H          92.0742  110.3003  120.7264 H        47        0    0.0000
    746 H          93.6664  110.4504  119.9616 H        47        0    0.0000
    747 H          92.1781  111.4851  118.3526 H        47        0    0.0000
    748 H          91.2761  112.3121  119.6353 H        47        0    0.0000
    749 H          94.1588  112.7484  118.7335 H        47        0    0.0000
    750 H          92.6137  115.1430  119.4433 H        47        0    0.0000
    751 H          93.6484  114.8154  118.0586 H        47        0    0.0000
    752 H          93.3817  114.1198  121.2809 H        47        0    0.0000
    753 H          94.8688  113.3253  120.7979 H        47        0    0.0000
    754 H          92.3673  112.2555  122.0514 H        47        0    0.0000
    755 H          93.7210  110.5641  123.0748 H        47        0    0.0000
    756 H          95.0754  110.8937  122.0014 H        47        0    0.0000
    757 C          94.6977  116.0195  122.4732 C.3      48        0    0.0000
    758 C          94.0878  114.6262  122.4551 C.3      48        0    0.0000
    759 C          95.2323  113.7276  122.9406 C.3      48        0    0.0000
    760 C          94.7997  112.3901  123.5547 C.3      48        0    0.0000
    761 C          96.1075  114.6191  123.8455 C.3      48        0    0.0000
    762 C          95.4920  116.0289  123.7809 C.3      48        0    0.0000
    763 C          96.5071  117.1735  123.8313 C.3      48        0    0.0000
    764 H          95.3579  116.1563  121.6080 H        48        0    0.0000
    765 H          93.9329  116.8018  122.4479 H        48        0    0.0000
    766 H          93.2244  114.5957  123.1285 H        48        0    0.0000
    767 H          93.7426  114.3443  121.4554 H        48        0    0.0000
    768 H          95.8426  113.4804  122.0592 H        48        0    0.0000
    769 H          95.6584  111.9393  124.0663 H        48        0    0.0000
    770 H          94.0397  112.5776  124.3225 H        48        0    0.0000
    771 H          97.1353  114.6169  123.4617 H        48        0    0.0000
    772 H          96.1550  114.2651  124.8806 H        48        0    0.0000
    773 H          94.7819  116.1317  124.6143 H        48        0    0.0000
    774 H          96.6819  117.5687  122.8236 H        48        0    0.0000
    775 H          96.0946  117.9977  124.4253 H        48        0    0.0000
    776 C          97.8245  119.6091  126.0498 C.3      49        0    0.0000
    777 C          98.0984  119.2643  124.5834 C.3      49        0    0.0000
    778 C          98.8415  117.9239  124.5811 C.3      49        0    0.0000
    779 C          97.8640  116.7402  124.4538 C.3      49        0    0.0000
    780 C          99.6045  117.9774  125.9108 C.3      49        0    0.0000
    781 C          98.6074  118.5918  126.8965 C.3      49        0    0.0000
    782 C          99.2977  119.1885  128.1283 C.3      49        0    0.0000
    783 H          98.1289  120.6427  126.2499 H        49        0    0.0000
    784 H          96.7529  119.5383  126.2687 H        49        0    0.0000
    785 H          98.7466  120.0384  124.1535 H        49        0    0.0000
    786 H          97.1795  119.2496  123.9884 H        49        0    0.0000
    787 H          99.5495  117.8926  123.7430 H        49        0    0.0000
    788 H          97.6685  116.3257  125.4502 H        49        0    0.0000
    789 H          98.2971  115.9297  123.8579 H        49        0    0.0000
    790 H         100.4811  118.6291  125.8006 H        49        0    0.0000
    791 H          99.9631  117.0008  126.2495 H        49        0    0.0000
    792 H          97.9126  117.8052  127.2225 H        49        0    0.0000
    793 H         100.3762  119.2793  127.9545 H        49        0    0.0000
    794 H          99.1689  118.5118  128.9813 H        49        0    0.0000
    795 C          98.7121  120.5805  128.5022 C.3      50        0    0.0000
    796 C          99.2980  121.1786  129.7892 C.3      50        0    0.0000
    797 H          98.9510  121.2580  127.6724 H        50        0    0.0000
    798 H          97.6186  120.5199  128.5523 H        50        0    0.0000
    799 H         100.2838  121.6232  129.6096 H        50        0    0.0000
    800 H          98.6405  121.9946  130.1154 H        50        0    0.0000
    801 C         100.8265  120.4429  134.4736 C.3      51        0    0.0000
    802 C          99.6276  120.5000  133.5393 C.3      51        0    0.0000
    803 C         100.2625  120.6320  132.1491 C.3      51        0    0.0000
    804 C          99.3853  120.1636  130.9811 C.3      51        0    0.0000
    805 C         101.6428  119.9514  132.2546 C.3      51        0    0.0000
    806 C         101.7997  119.5285  133.7267 C.3      51        0    0.0000
    807 C         103.2253  119.6329  134.2743 C.3      51        0    0.0000
    808 H         101.2502  121.4454  134.6094 H        51        0    0.0000
    809 H         100.5598  120.0472  135.4584 H        51        0    0.0000
    810 H          99.0409  119.5805  133.6399 H        51        0    0.0000
    811 H          98.9697  121.3438  133.7700 H        51        0    0.0000
    812 H         100.4527  121.7029  131.9833 H        51        0    0.0000
    813 H          99.7753  119.2111  130.6030 H        51        0    0.0000
    814 H          98.3728  119.9634  131.3513 H        51        0    0.0000
    815 H         102.4184  120.6706  131.9635 H        51        0    0.0000
    816 H         101.7473  119.0867  131.5908 H        51        0    0.0000
    817 H         101.4439  118.4926  133.8259 H        51        0    0.0000
    818 H         103.6810  120.5808  133.9646 H        51        0    0.0000
    819 H         103.1926  119.6428  135.3703 H        51        0    0.0000
    820 C         107.2770  119.3586  133.5796 C.3      52        0    0.0000
    821 C         106.6263  118.0057  133.8804 C.3      52        0    0.0000
    822 C         105.3715  118.2991  134.7099 C.3      52        0    0.0000
    823 C         104.1292  118.4554  133.8127 C.3      52        0    0.0000
    824 C         105.7751  119.5729  135.4634 C.3      52        0    0.0000
    825 C         106.5318  120.4049  134.4249 C.3      52        0    0.0000
    826 C         107.4362  121.4608  135.0704 C.3      52        0    0.0000
    827 H         108.3465  119.3152  133.8148 H        52        0    0.0000
    828 H         107.1887  119.6004  132.5142 H        52        0    0.0000
    829 H         107.3227  117.4036  134.4778 H        52        0    0.0000
    830 H         106.4173  117.4404  132.9664 H        52        0    0.0000
    831 H         105.1963  117.4818  135.4212 H        52        0    0.0000
    832 H         103.5381  117.5324  133.8519 H        52        0    0.0000
    833 H         104.4118  118.6009  132.7646 H        52        0    0.0000
    834 H         106.4400  119.3073  136.2957 H        52        0    0.0000
    835 H         104.9264  120.1202  135.8842 H        52        0    0.0000
    836 H         105.7965  120.9091  133.7821 H        52        0    0.0000
    837 H         106.9898  122.4571  134.9718 H        52        0    0.0000
    838 H         108.3969  121.4892  134.5426 H        52        0    0.0000
    839 C         107.7007  121.1557  136.5728 C.3      53        0    0.0000
    840 C         108.9986  121.7710  137.1153 C.3      53        0    0.0000
    841 H         107.7761  120.0647  136.6660 H        53        0    0.0000
    842 H         106.8339  121.4620  137.1701 H        53        0    0.0000
    843 H         109.8296  121.4176  136.4915 H        53        0    0.0000
    844 H         108.9870  122.8641  137.0321 H        53        0    0.0000
    845 C         111.3387  124.1342  140.1700 C.3      54        0    0.0000
    846 C         110.2570  123.6357  139.2240 C.3      54        0    0.0000
    847 C         110.5226  122.1301  139.1626 C.3      54        0    0.0000
    848 C         109.3320  121.3568  138.5905 C.3      54        0    0.0000
    849 C         110.8916  121.7642  140.6120 C.3      54        0    0.0000
    850 C         111.3629  123.0735  141.2778 C.3      54        0    0.0000
    851 C         112.6768  122.9765  142.0634 C.3      54        0    0.0000
    852 H         111.1108  125.1302  140.5625 H        54        0    0.0000
    853 H         112.2928  124.1951  139.6354 H        54        0    0.0000
    854 H         109.2635  123.8458  139.6387 H        54        0    0.0000
    855 H         110.3243  124.1083  138.2393 H        54        0    0.0000
    856 H         111.4068  121.9620  138.5306 H        54        0    0.0000
    857 H         109.5282  120.2787  138.6273 H        54        0    0.0000
    858 H         108.4489  121.5374  139.2149 H        54        0    0.0000
    859 H         110.0213  121.3794  141.1579 H        54        0    0.0000
    860 H         111.6511  120.9755  140.6301 H        54        0    0.0000
    861 H         110.5866  123.3520  142.0061 H        54        0    0.0000
    862 H         113.5047  122.8283  141.3600 H        54        0    0.0000
    863 H         112.6443  122.0859  142.7023 H        54        0    0.0000
    864 C         115.4776  124.5527  145.7867 C.3      55        0    0.0000
    865 C         114.4992  125.1945  144.8148 C.3      55        0    0.0000
    866 C         114.2964  124.1145  143.7446 C.3      55        0    0.0000
    867 C         112.9871  124.2154  142.9519 C.3      55        0    0.0000
    868 C         114.5351  122.7687  144.4598 C.3      55        0    0.0000
    869 C         114.9581  123.1179  145.8984 C.3      55        0    0.0000
    870 C         115.9975  122.1735  146.5072 C.3      55        0    0.0000
    871 H         116.4932  124.5749  145.3732 H        55        0    0.0000
    872 H         115.4899  125.0649  146.7536 H        55        0    0.0000
    873 H         113.5684  125.4368  145.3389 H        55        0    0.0000
    874 H         114.8951  126.1222  144.3896 H        55        0    0.0000
    875 H         115.1105  124.2298  143.0135 H        55        0    0.0000
    876 H         112.1568  124.3609  143.6533 H        55        0    0.0000
    877 H         113.0211  125.1080  142.3161 H        55        0    0.0000
    878 H         115.3280  122.2214  143.9348 H        55        0    0.0000
    879 H         113.6519  122.1212  144.4628 H        55        0    0.0000
    880 H         114.0567  123.1262  146.5285 H        55        0    0.0000
    881 H         115.5380  121.5602  147.2914 H        55        0    0.0000
    882 H         116.3544  121.4815  145.7352 H        55        0    0.0000
    883 C         117.2179  122.9323  147.0999 C.3      56        0    0.0000
    884 C         118.1520  122.0509  147.9413 C.3      56        0    0.0000
    885 H         116.8160  123.7200  147.7500 H        56        0    0.0000
    886 H         117.7645  123.4385  146.2955 H        56        0    0.0000
    887 H         117.5498  121.5590  148.7159 H        56        0    0.0000
    888 H         118.5983  121.2523  147.3371 H        56        0    0.0000
    889 C         118.3677  123.5053  152.2191 C.3      57        0    0.0000
    890 C         117.9012  122.9815  150.8586 C.3      57        0    0.0000
    891 C         118.7136  123.7392  149.7932 C.3      57        0    0.0000
    892 C         119.2816  122.8462  148.6832 C.3      57        0    0.0000
    893 C         119.8123  124.4533  150.5869 C.3      57        0    0.0000
    894 C         119.1614  124.7850  151.9340 C.3      57        0    0.0000
    895 C         118.2760  126.0437  151.8646 C.3      57        0    0.0000
    896 H         117.5307  123.6492  152.9089 H        57        0    0.0000
    897 H         119.0351  122.7620  152.6738 H        57        0    0.0000
    898 H         118.0399  121.8960  150.8073 H        57        0    0.0000
    899 H         116.8316  123.1782  150.7204 H        57        0    0.0000
    900 H         118.0645  124.5046  149.3443 H        57        0    0.0000
    901 H         119.8079  123.4687  147.9499 H        57        0    0.0000
    902 H         120.0190  122.1470  149.0939 H        57        0    0.0000
    903 H         120.1847  125.3406  150.0647 H        57        0    0.0000
    904 H         120.6651  123.7813  150.7483 H        57        0    0.0000
    905 H         119.9403  124.9278  152.6938 H        57        0    0.0000
    906 H         117.8423  126.2769  152.8434 H        57        0    0.0000
    907 H         117.4387  125.8624  151.1802 H        57        0    0.0000
    908 C         119.0675  127.2787  151.3449 C.3      58        0    0.0000
    909 C         119.0579  128.4757  152.3065 C.3      58        0    0.0000
    910 H         120.1082  126.9557  151.2137 H        58        0    0.0000
    911 H         118.6998  127.5620  150.3517 H        58        0    0.0000
    912 H         119.0054  129.4252  151.7609 H        58        0    0.0000
    913 H         118.1483  128.4142  152.9176 H        58        0    0.0000
    914 C         123.3885  128.9902  154.2050 C.3      59        0    0.0000
    915 C         122.5295  129.6466  153.1210 C.3      59        0    0.0000
    916 C         121.6197  128.5482  152.5597 C.3      59        0    0.0000
    917 C         120.2701  128.5039  153.3007 C.3      59        0    0.0000
    918 C         122.4838  127.2933  152.7380 C.3      59        0    0.0000
    919 C         123.1402  127.4757  154.1088 C.3      59        0    0.0000
    920 C         124.3977  126.6143  154.2724 C.3      59        0    0.0000
    921 H         124.4416  129.2522  154.0517 H        59        0    0.0000
    922 H         123.1039  129.3579  155.1975 H        59        0    0.0000
    923 H         123.1872  130.0146  152.3233 H        59        0    0.0000
    924 H         121.9771  130.5105  153.5044 H        59        0    0.0000
    925 H         121.4344  128.7279  151.4929 H        59        0    0.0000
    926 H         120.1763  129.3958  153.9321 H        59        0    0.0000
    927 H         120.2130  127.6396  153.9709 H        59        0    0.0000
    928 H         123.2486  127.2640  151.9509 H        59        0    0.0000
    929 H         121.9170  126.3594  152.6786 H        59        0    0.0000
    930 H         122.4117  127.1946  154.8822 H        59        0    0.0000
    931 H         124.7498  126.2642  153.2951 H        59        0    0.0000
    932 H         124.1537  125.7220  154.8609 H        59        0    0.0000
    933 C         124.7075  128.7568  158.4233 C.3      60        0    0.0000
    934 C         124.5368  127.6813  157.3614 C.3      60        0    0.0000
    935 C         125.0627  128.3508  156.0854 C.3      60        0    0.0000
    936 C         125.5402  127.3889  154.9900 C.3      60        0    0.0000
    937 C         126.1041  129.3866  156.5566 C.3      60        0    0.0000
    938 C         126.0806  129.3471  158.0956 C.3      60        0    0.0000
    939 C         126.3037  130.7009  158.7742 C.3      60        0    0.0000
    940 H         123.9186  129.5129  158.3283 H        60        0    0.0000
    941 H         124.6657  128.3433  159.4356 H        60        0    0.0000
    942 H         125.1238  126.7985  157.6368 H        60        0    0.0000
    943 H         123.4924  127.3703  157.2592 H        60        0    0.0000
    944 H         124.2265  128.9208  155.6537 H        60        0    0.0000
    945 H         126.1046  127.9559  154.2400 H        60        0    0.0000
    946 H         126.2384  126.6657  155.4277 H        60        0    0.0000
    947 H         125.8178  130.3768  156.1807 H        60        0    0.0000
    948 H         127.1122  129.1841  156.1801 H        60        0    0.0000
    949 H         126.8499  128.6370  158.4323 H        60        0    0.0000
    950 H         125.3462  131.1207  159.1047 H        60        0    0.0000
    951 H         126.9125  130.5586  159.6750 H        60        0    0.0000
    952 C         130.1497  132.5939  159.7585 C.3      61        0    0.0000
    953 C         128.8092  131.8626  159.6501 C.3      61        0    0.0000
    954 C         127.9813  132.6326  158.6128 C.3      61        0    0.0000
    955 C         127.0176  131.7230  157.8457 C.3      61        0    0.0000
    956 C         129.0496  133.3069  157.7456 C.3      61        0    0.0000
    957 C         130.0761  133.7754  158.7824 C.3      61        0    0.0000
    958 C         131.4465  134.1391  158.2042 C.3      61        0    0.0000
    959 H         130.3351  132.9402  160.7810 H        61        0    0.0000
    960 H         130.9628  131.9066  159.4960 H        61        0    0.0000
    961 H         128.2936  131.8266  160.6158 H        61        0    0.0000
    962 H         128.9830  130.8265  159.3358 H        61        0    0.0000
    963 H         127.4128  133.4132  159.1392 H        61        0    0.0000
    964 H         127.5745  131.1691  157.0804 H        61        0    0.0000
    965 H         126.2670  132.3230  157.3181 H        61        0    0.0000
    966 H         128.6405  134.1424  157.1687 H        61        0    0.0000
    967 H         129.4972  132.5904  157.0455 H        61        0    0.0000
    968 H         129.6610  134.6396  159.3212 H        61        0    0.0000
    969 H         131.3920  135.0939  157.6685 H        61        0    0.0000
    970 H         131.7422  133.3807  157.4694 H        61        0    0.0000
    971 C         132.5462  134.2220  159.2982 C.3      62        0    0.0000
    972 C         133.8496  134.8806  158.8238 C.3      62        0    0.0000
    973 H         132.1355  134.8294  160.1149 H        62        0    0.0000
    974 H         132.7313  133.2240  159.7123 H        62        0    0.0000
    975 H         134.3529  134.2686  158.0662 H        62        0    0.0000
    976 H         133.5938  135.8317  158.3396 H        62        0    0.0000
    977 C         138.0489  136.6622  158.9041 C.3      63        0    0.0000
    978 C         136.6609  136.1940  158.4695 C.3      63        0    0.0000
    979 C         135.7190  136.4414  159.6606 C.3      63        0    0.0000
    980 C         134.8514  135.2174  159.9821 C.3      63        0    0.0000
    981 C         136.6452  136.8713  160.8087 C.3      63        0    0.0000
    982 C         137.8292  137.5635  160.1218 C.3      63        0    0.0000
    983 C         137.5553  139.0216  159.7104 C.3      63        0    0.0000
    984 H         138.6405  135.7877  159.2039 H        63        0    0.0000
    985 H         138.5904  137.1552  158.0907 H        63        0    0.0000
    986 H         136.6914  135.1433  158.1609 H        63        0    0.0000
    987 H         136.3192  136.7740  157.6040 H        63        0    0.0000
    988 H         135.0647  137.2862  159.4031 H        63        0    0.0000
    989 H         134.2975  135.3774  160.9143 H        63        0    0.0000
    990 H         135.4989  134.3471  160.1440 H        63        0    0.0000
    991 H         136.1322  137.5135  161.5312 H        63        0    0.0000
    992 H         137.0107  135.9908  161.3532 H        63        0    0.0000
    993 H         138.7142  137.5310  160.7701 H        63        0    0.0000
    994 H         136.7630  139.4652  160.3230 H        63        0    0.0000
    995 H         137.1984  139.0430  158.6736 H        63        0    0.0000
    996 C         142.4052  139.5609  158.6336 C.3      64        0    0.0000
    997 C         140.9627  140.0198  158.4050 C.3      64        0    0.0000
    998 C         140.0863  139.1597  159.3250 C.3      64        0    0.0000
    999 C         138.8335  139.9028  159.7970 C.3      64        0    0.0000
   1000 C         141.0497  138.7559  160.4461 C.3      64        0    0.0000
   1001 C         142.3404  138.4426  159.6820 C.3      64        0    0.0000
   1002 C         143.5992  138.3866  160.5520 C.3      64        0    0.0000
   1003 H         142.8632  139.2029  157.7052 H        64        0    0.0000
   1004 H         143.0060  140.4076  158.9866 H        64        0    0.0000
   1005 H         140.6664  139.9016  157.3572 H        64        0    0.0000
   1006 H         140.8756  141.0854  158.6491 H        64        0    0.0000
   1007 H         139.7933  138.2554  158.7717 H        64        0    0.0000
   1008 H         138.6855  140.7939  159.1754 H        64        0    0.0000
   1009 H         138.9653  140.2543  160.8270 H        64        0    0.0000
   1010 H         140.6851  137.8889  161.0060 H        64        0    0.0000
   1011 H         141.2012  139.5832  161.1507 H        64        0    0.0000
   1012 H         142.2125  137.4858  159.1550 H        64        0    0.0000
   1013 H         143.9039  139.3980  160.8454 H        64        0    0.0000
   1014 H         144.4252  137.9650  159.9667 H        64        0    0.0000
   1015 C         143.4006  137.5170  161.8236 C.3      65        0    0.0000
   1016 C         144.6786  137.3217  162.6518 C.3      65        0    0.0000
   1017 H         143.0617  136.5303  161.4829 H        65        0    0.0000
   1018 H         142.5900  137.9335  162.4331 H        65        0    0.0000
   1019 H         145.1534  136.3861  162.3297 H        65        0    0.0000
   1020 H         145.4032  138.1224  162.4620 H        65        0    0.0000
   1021 C         147.8132  138.6377  164.6483 C.3      66        0    0.0000
   1022 C         146.9923  137.4462  164.1490 C.3      66        0    0.0000
   1023 C         145.7113  137.4061  165.0016 C.3      66        0    0.0000
   1024 C         144.4251  137.1932  164.1938 C.3      66        0    0.0000
   1025 C         145.7126  138.7396  165.7558 C.3      66        0    0.0000
   1026 C         147.1952  139.0495  165.9889 C.3      66        0    0.0000
   1027 C         147.7761  138.2747  167.1869 C.3      66        0    0.0000
   1028 H         148.8798  138.4011  164.7079 H        66        0    0.0000
   1029 H         147.7066  139.4641  163.9341 H        66        0    0.0000
   1030 H         146.7876  137.5544  163.0782 H        66        0    0.0000
   1031 H         147.5548  136.5142  164.2786 H        66        0    0.0000
   1032 H         145.8129  136.5969  165.7389 H        66        0    0.0000
   1033 H         144.0291  136.1915  164.3991 H        66        0    0.0000
   1034 H         143.6552  137.9090  164.5042 H        66        0    0.0000
   1035 H         145.1382  138.6851  166.6863 H        66        0    0.0000
   1036 H         145.2668  139.5290  165.1368 H        66        0    0.0000
   1037 H         147.3245  140.1268  166.1534 H        66        0    0.0000
   1038 H         148.2216  137.3264  166.8665 H        66        0    0.0000
   1039 H         146.9687  138.0271  167.8863 H        66        0    0.0000
   1040 C         150.4390  137.2885  170.7106 C.3      67        0    0.0000
   1041 C         149.5003  137.1964  169.5086 C.3      67        0    0.0000
   1042 C         149.9865  138.2405  168.4884 C.3      67        0    0.0000
   1043 C         148.8414  139.1107  167.9538 C.3      67        0    0.0000
   1044 C         151.0798  139.0285  169.2262 C.3      67        0    0.0000
   1045 C         151.6859  138.0275  170.2180 C.3      67        0    0.0000
   1046 C         152.7112  137.0634  169.5938 C.3      67        0    0.0000
   1047 H         149.9534  137.8826  171.4953 H        67        0    0.0000
   1048 H         150.6575  136.3050  171.1385 H        67        0    0.0000
   1049 H         148.4626  137.3566  169.8212 H        67        0    0.0000
   1050 H         149.5517  136.1958  169.0634 H        67        0    0.0000
   1051 H         150.4486  137.7018  167.6491 H        67        0    0.0000
   1052 H         149.2345  139.8972  167.2991 H        67        0    0.0000
   1053 H         148.3476  139.6149  168.7931 H        67        0    0.0000
   1054 H         151.8175  139.4505  168.5368 H        67        0    0.0000
   1055 H         150.6366  139.8633  169.7846 H        67        0    0.0000
   1056 H         152.1542  138.5608  171.0551 H        67        0    0.0000
   1057 H         152.3040  136.5719  168.7037 H        67        0    0.0000
   1058 H         152.9425  136.2678  170.3125 H        67        0    0.0000
   1059 C         154.0408  137.7817  169.2278 C.3      68        0    0.0000
   1060 C         154.0391  138.4248  167.8336 C.3      68        0    0.0000
   1061 H         154.1855  138.5776  169.9697 H        68        0    0.0000
   1062 H         154.8806  137.0870  169.3457 H        68        0    0.0000
   1063 H         155.0212  138.3394  167.3538 H        68        0    0.0000
   1064 H         153.3327  137.8695  167.2034 H        68        0    0.0000
   1065 C         152.7931  138.5811  170.7162 C.3      69        0    0.0000
   1066 C         151.9483  138.8929  169.4780 C.3      69        0    0.0000
   1067 C         152.4986  140.1972  168.8908 C.3      69        0    0.0000
   1068 C         153.5745  139.9224  167.8233 C.3      69        0    0.0000
   1069 C         153.0147  140.9200  170.1415 C.3      69        0    0.0000
   1070 C         153.6720  139.8163  170.9740 C.3      69        0    0.0000
   1071 C         153.8070  140.2024  172.4513 C.3      69        0    0.0000
   1072 H         152.1370  138.3501  171.5631 H        69        0    0.0000
   1073 H         153.4210  137.6997  170.5424 H        69        0    0.0000
   1074 H         150.9075  139.0471  169.7899 H        69        0    0.0000
   1075 H         151.9487  138.0636  168.7634 H        69        0    0.0000
   1076 H         151.6831  140.7728  168.4343 H        69        0    0.0000
   1077 H         154.4483  140.5549  168.0212 H        69        0    0.0000
   1078 H         153.2177  140.1872  166.8222 H        69        0    0.0000
   1079 H         152.1661  141.3535  170.6867 H        69        0    0.0000
   1080 H         153.7119  141.7337  169.9206 H        69        0    0.0000
   1081 H         154.6724  139.6211  170.5629 H        69        0    0.0000
   1082 H         154.8426  140.0720  172.7864 H        69        0    0.0000
   1083 H         153.1889  139.5325  173.0607 H        69        0    0.0000
   1084 C         151.6967  143.1401  169.6236 C.3      70        0    0.0000
   1085 C         152.7288  142.2179  170.2574 C.3      70        0    0.0000
   1086 C         152.3008  142.1857  171.7282 C.3      70        0    0.0000
   1087 C         153.3577  141.6693  172.7093 C.3      70        0    0.0000
   1088 C         151.7536  143.5961  172.0226 C.3      70        0    0.0000
   1089 C         151.5742  144.2719  170.6491 C.3      70        0    0.0000
   1090 C         150.3325  145.1573  170.5060 C.3      70        0    0.0000
   1091 H         152.0215  143.5057  168.6445 H        70        0    0.0000
   1092 H         150.7521  142.6015  169.4894 H        70        0    0.0000
   1093 H         152.7197  141.2216  169.8045 H        70        0    0.0000
   1094 H         153.7312  142.6409  170.1290 H        70        0    0.0000
   1095 H         151.4468  141.4949  171.7968 H        70        0    0.0000
   1096 H         154.2383  142.3208  172.6626 H        70        0    0.0000
   1097 H         152.9651  141.7430  173.7305 H        70        0    0.0000
   1098 H         152.4317  144.1955  172.6397 H        70        0    0.0000
   1099 H         150.8160  143.5154  172.5831 H        70        0    0.0000
   1100 H         152.4449  144.9291  170.5042 H        70        0    0.0000
   1101 H         150.4802  145.8483  169.6676 H        70        0    0.0000
   1102 H         149.4718  144.5287  170.2482 H        70        0    0.0000
   1103 C         149.9848  145.9837  171.7805 C.3      71        0    0.0000
   1104 C         149.6245  147.4486  171.4950 C.3      71        0    0.0000
   1105 H         150.8770  145.9708  172.4195 H        71        0    0.0000
   1106 H         149.1896  145.4795  172.3422 H        71        0    0.0000
   1107 H         150.3913  147.8642  170.8288 H        71        0    0.0000
   1108 H         148.6698  147.5280  170.9620 H        71        0    0.0000
   1109 C         149.5938  148.3577  172.7723 C.3      72        0    0.0000
   1110 C         149.8064  149.8501  172.4812 C.3      72        0    0.0000
   1111 H         150.4100  148.0179  173.4226 H        72        0    0.0000
   1112 H         148.6619  148.1878  173.3243 H        72        0    0.0000
   1113 H         150.7521  149.9590  171.9349 H        72        0    0.0000
   1114 H         149.0198  150.2451  171.8276 H        72        0    0.0000
   1115 C         151.1958  148.6388  176.6286 C.3      73        0    0.0000
   1116 C         150.8917  148.8274  175.1401 C.3      73        0    0.0000
   1117 C         149.8166  149.9188  175.0551 C.3      73        0    0.0000
   1118 C         149.9214  150.7400  173.7670 C.3      73        0    0.0000
   1119 C         150.0318  150.7207  176.3429 C.3      73        0    0.0000
   1120 C         150.2916  149.6240  177.3811 C.3      73        0    0.0000
   1121 C         150.9258  150.1168  178.6847 C.3      73        0    0.0000
   1122 H         151.0059  147.6086  176.9485 H        73        0    0.0000
   1123 H         152.2566  148.8461  176.8136 H        73        0    0.0000
   1124 H         150.5428  147.8958  174.6817 H        73        0    0.0000
   1125 H         151.8076  149.1246  174.6153 H        73        0    0.0000
   1126 H         148.8310  149.4333  175.1047 H        73        0    0.0000
   1127 H         150.8870  151.2594  173.7465 H        73        0    0.0000
   1128 H         149.1456  151.5143  173.7455 H        73        0    0.0000
   1129 H         149.1567  151.3266  176.5985 H        73        0    0.0000
   1130 H         150.8983  151.3874  176.2505 H        73        0    0.0000
   1131 H         149.3409  149.1169  177.6011 H        73        0    0.0000
   1132 H         151.9842  149.8337  178.7236 H        73        0    0.0000
   1133 H         150.4358  149.6256  179.5339 H        73        0    0.0000
   1134 C         152.9262  152.4059  181.9169 C.3      74        0    0.0000
   1135 C         152.7697  152.3048  180.4060 C.3      74        0    0.0000
   1136 C         151.2537  152.1727  180.2276 C.3      74        0    0.0000
   1137 C         150.7952  151.6546  178.8610 C.3      74        0    0.0000
   1138 C         150.7715  151.3572  181.4433 C.3      74        0    0.0000
   1139 C         151.9527  151.3414  182.4333 C.3      74        0    0.0000
   1140 C         151.5755  151.4579  183.9133 C.3      74        0    0.0000
   1141 H         153.9550  152.2114  182.2353 H        74        0    0.0000
   1142 H         152.6512  153.4125  182.2508 H        74        0    0.0000
   1143 H         153.1689  153.1858  179.8938 H        74        0    0.0000
   1144 H         153.3065  151.4241  180.0366 H        74        0    0.0000
   1145 H         150.8305  153.1827  180.3368 H        74        0    0.0000
   1146 H         149.7483  151.9396  178.7029 H        74        0    0.0000
   1147 H         151.3785  152.1499  178.0758 H        74        0    0.0000
   1148 H         150.4971  150.3289  181.1844 H        74        0    0.0000
   1149 H         149.8717  151.8210  181.8616 H        74        0    0.0000
   1150 H         152.4519  150.3679  182.3138 H        74        0    0.0000
   1151 H         152.4915  151.5289  184.5116 H        74        0    0.0000
   1152 H         151.0237  152.3923  184.0700 H        74        0    0.0000
   1153 C         150.7172  150.2735  184.4505 C.3      75        0    0.0000
   1154 C         150.4317  150.3433  185.9576 C.3      75        0    0.0000
   1155 H         149.7571  150.3118  183.9200 H        75        0    0.0000
   1156 H         151.1884  149.3221  184.1775 H        75        0    0.0000
   1157 H         149.6893  149.5946  186.2580 H        75        0    0.0000
   1158 H         151.3587  150.0978  186.4914 H        75        0    0.0000
   1159 C         150.8376  152.2038  189.9986 C.3      76        0    0.0000
   1160 C         150.2752  152.8631  188.7402 C.3      76        0    0.0000
   1161 C         149.5767  151.7533  187.9355 C.3      76        0    0.0000
   1162 C         149.9840  151.7609  186.4562 C.3      76        0    0.0000
   1163 C         149.9287  150.4533  188.6751 C.3      76        0    0.0000
   1164 C         150.1021  150.8688  190.1415 C.3      76        0    0.0000
   1165 C         148.7792  151.0259  190.9132 C.3      76        0    0.0000
   1166 H         151.9082  152.0124  189.8506 H        76        0    0.0000
   1167 H         150.7431  152.8482  190.8782 H        76        0    0.0000
   1168 H         151.0748  153.3583  188.1785 H        76        0    0.0000
   1169 H         149.5457  153.6356  189.0108 H        76        0    0.0000
   1170 H         148.4920  151.9155  188.0089 H        76        0    0.0000
   1171 H         150.7909  152.4834  186.2870 H        76        0    0.0000
   1172 H         149.1326  152.0892  185.8479 H        76        0    0.0000
   1173 H         149.1655  149.6816  188.5345 H        76        0    0.0000
   1174 H         150.8784  150.0481  188.3021 H        76        0    0.0000
   1175 H         150.7429  150.1481  190.6655 H        76        0    0.0000
   1176 H         147.9811  150.4285  190.4596 H        76        0    0.0000
   1177 H         148.4543  152.0723  190.8630 H        76        0    0.0000
   1178 C         150.4980  147.5146  191.1727 C.3      77        0    0.0000
   1179 C         149.2059  148.3231  191.3130 C.3      77        0    0.0000
   1180 C         149.3577  149.1783  192.5838 C.3      77        0    0.0000
   1181 C         148.9283  150.6406  192.4122 C.3      77        0    0.0000
   1182 C         150.8369  149.0448  192.9596 C.3      77        0    0.0000
   1183 C         151.2204  147.6278  192.5196 C.3      77        0    0.0000
   1184 C         150.7784  146.5574  193.5354 C.3      77        0    0.0000
   1185 H         150.3020  146.4840  190.8620 H        77        0    0.0000
   1186 H         151.1186  147.9732  190.3921 H        77        0    0.0000
   1187 H         149.0405  148.9246  190.4124 H        77        0    0.0000
   1188 H         148.3454  147.6519  191.4168 H        77        0    0.0000
   1189 H         148.7596  148.7176  193.3830 H        77        0    0.0000
   1190 H         147.9634  150.7964  192.9092 H        77        0    0.0000
   1191 H         149.6475  151.3103  192.8976 H        77        0    0.0000
   1192 H         151.0061  149.2189  194.0272 H        77        0    0.0000
   1193 H         151.4394  149.7757  192.4049 H        77        0    0.0000
   1194 H         152.3067  147.5685  192.3759 H        77        0    0.0000
   1195 H         151.0562  145.5528  193.1978 H        77        0    0.0000
   1196 H         149.6859  146.5719  193.6273 H        77        0    0.0000
   1197 C         154.1629  149.2354  194.0648 C.3      78        0    0.0000
   1198 C         153.7079  147.8203  194.3871 C.3      78        0    0.0000
   1199 C         152.3255  148.0235  195.0200 C.3      78        0    0.0000
   1200 C         151.3862  146.8131  194.9451 C.3      78        0    0.0000
   1201 C         151.7743  149.3279  194.4081 C.3      78        0    0.0000
   1202 C         152.8937  149.8854  193.5099 C.3      78        0    0.0000
   1203 C         152.9919  151.4127  193.4830 C.3      78        0    0.0000
   1204 H         154.5012  149.7424  194.9766 H        78        0    0.0000
   1205 H         154.9839  149.2470  193.3414 H        78        0    0.0000
   1206 H         153.6573  147.2328  193.4639 H        78        0    0.0000
   1207 H         154.3990  147.3141  195.0684 H        78        0    0.0000
   1208 H         152.4882  148.2233  196.0897 H        78        0    0.0000
   1209 H         151.9352  145.9170  195.2583 H        78        0    0.0000
   1210 H         150.5695  146.9483  195.6641 H        78        0    0.0000
   1211 H         151.5302  150.0267  195.2179 H        78        0    0.0000
   1212 H         150.8553  149.1772  193.8319 H        78        0    0.0000
   1213 H         152.7330  149.5103  192.4887 H        78        0    0.0000
   1214 H         152.7390  151.7904  192.4852 H        78        0    0.0000
   1215 H         152.2545  151.8354  194.1756 H        78        0    0.0000
   1216 C         154.9289  151.7063  197.6399 C.3      79        0    0.0000
   1217 C         154.0158  151.9330  196.4432 C.3      79        0    0.0000
   1218 C         154.8745  151.4635  195.2643 C.3      79        0    0.0000
   1219 C         154.4036  151.9267  193.8823 C.3      79        0    0.0000
   1220 C         156.3199  151.8473  195.6369 C.3      79        0    0.0000
   1221 C         156.2854  152.2090  197.1348 C.3      79        0    0.0000
   1222 C         157.4997  151.7568  197.9515 C.3      79        0    0.0000
   1223 H         154.5895  152.2564  198.5231 H        79        0    0.0000
   1224 H         154.9520  150.6402  197.8911 H        79        0    0.0000
   1225 H         153.0845  151.3641  196.5260 H        79        0    0.0000
   1226 H         153.7598  152.9957  196.3691 H        79        0    0.0000
   1227 H         154.8317  150.3638  195.2566 H        79        0    0.0000
   1228 H         154.4004  153.0228  193.8540 H        79        0    0.0000
   1229 H         155.1260  151.5942  193.1275 H        79        0    0.0000
   1230 H         156.6951  152.7013  195.0628 H        79        0    0.0000
   1231 H         156.9896  151.0090  195.4167 H        79        0    0.0000
   1232 H         156.2606  153.3076  197.1940 H        79        0    0.0000
   1233 H         157.1879  151.5777  198.9873 H        79        0    0.0000
   1234 H         157.8579  150.7973  197.5599 H        79        0    0.0000
   1235 C         158.6836  152.7700  197.9532 C.3      80        0    0.0000
   1236 C         159.5134  152.7577  199.2450 C.3      80        0    0.0000
   1237 H         158.2451  153.7697  197.8398 H        80        0    0.0000
   1238 H         159.3143  152.6027  197.0723 H        80        0    0.0000
   1239 H         158.8365  152.5458  200.0825 H        80        0    0.0000
   1240 H         160.2583  151.9534  199.2329 H        80        0    0.0000
   1241 C         162.0422  154.1748  202.8640 C.3      81        0    0.0000
   1242 C         161.4157  153.4110  201.6944 C.3      81        0    0.0000
   1243 C         160.3804  154.3551  201.0689 C.3      81        0    0.0000
   1244 C         160.2152  154.1230  199.5645 C.3      81        0    0.0000
   1245 C         160.9031  155.7449  201.4471 C.3      81        0    0.0000
   1246 C         161.3593  155.5483  202.8966 C.3      81        0    0.0000
   1247 C         162.2849  156.6460  203.4286 C.3      81        0    0.0000
   1248 H         161.9003  153.6430  203.8111 H        81        0    0.0000
   1249 H         163.1228  154.2675  202.7023 H        81        0    0.0000
   1250 H         160.9462  152.4801  202.0299 H        81        0    0.0000
   1251 H         162.1976  153.1397  200.9750 H        81        0    0.0000
   1252 H         159.4180  154.1924  201.5759 H        81        0    0.0000
   1253 H         161.2023  154.1279  199.0869 H        81        0    0.0000
   1254 H         159.6422  154.9420  199.1140 H        81        0    0.0000
   1255 H         160.1257  156.5110  201.3633 H        81        0    0.0000
   1256 H         161.7449  156.0358  200.8063 H        81        0    0.0000
   1257 H         160.4687  155.4730  203.5374 H        81        0    0.0000
   1258 H         163.2874  156.5398  202.9980 H        81        0    0.0000
   1259 H         162.3934  156.5332  204.5141 H        81        0    0.0000
   1260 C         161.7429  158.0712  203.1319 C.3      82        0    0.0000
   1261 C         162.2965  159.1562  204.0665 C.3      82        0    0.0000
   1262 H         162.0460  158.3182  202.1063 H        82        0    0.0000
   1263 H         160.6467  158.0587  203.1403 H        82        0    0.0000
   1264 H         162.4004  158.7840  205.0924 H        82        0    0.0000
   1265 H         163.3058  159.4181  203.7240 H        82        0    0.0000
   1266 C         162.0593  161.6932  207.5247 C.3      83        0    0.0000
   1267 C         161.1268  161.7130  206.3111 C.3      83        0    0.0000
   1268 C         162.0139  161.5028  205.0709 C.3      83        0    0.0000
   1269 C         161.4606  160.4829  204.0680 C.3      83        0    0.0000
   1270 C         163.3730  161.0832  205.6401 C.3      83        0    0.0000
   1271 C         163.4818  161.8336  206.9718 C.3      83        0    0.0000
   1272 C         163.9172  163.2995  206.7863 C.3      83        0    0.0000
   1273 H         161.7921  162.4615  208.2564 H        83        0    0.0000
   1274 H         161.9633  160.7226  208.0281 H        83        0    0.0000
   1275 H         160.3556  160.9422  206.4184 H        83        0    0.0000
   1276 H         160.6122  162.6784  206.2412 H        83        0    0.0000
   1277 H         162.1392  162.4725  204.5681 H        83        0    0.0000
   1278 H         160.4240  160.2408  204.3307 H        83        0    0.0000
   1279 H         161.4411  160.9102  203.0588 H        83        0    0.0000
   1280 H         164.1940  161.3140  204.9536 H        83        0    0.0000
   1281 H         163.3913  160.0017  205.8271 H        83        0    0.0000
   1282 H         164.1976  161.3200  207.6261 H        83        0    0.0000
   1283 H         163.0491  163.9627  206.7028 H        83        0    0.0000
   1284 H         164.4826  163.3957  205.8517 H        83        0    0.0000
   1285 C         168.4552  163.2891  207.3624 C.3      84        0    0.0000
   1286 C         167.0368  163.0840  206.8248 C.3      84        0    0.0000
   1287 C         166.1149  162.9604  208.0512 C.3      84        0    0.0000
   1288 C         164.8251  163.7845  207.9535 C.3      84        0    0.0000
   1289 C         166.9918  163.3872  209.2328 C.3      84        0    0.0000
   1290 C         168.4033  162.9285  208.8511 C.3      84        0    0.0000
   1291 C         168.6259  161.4279  209.1187 C.3      84        0    0.0000
   1292 H         169.1932  162.7146  206.7945 H        84        0    0.0000
   1293 H         168.7227  164.3484  207.2581 H        84        0    0.0000
   1294 H         166.7613  163.9158  206.1673 H        84        0    0.0000
   1295 H         166.9846  162.1670  206.2263 H        84        0    0.0000
   1296 H         165.8568  161.8999  208.1833 H        84        0    0.0000
   1297 H         164.2643  163.6938  208.8913 H        84        0    0.0000
   1298 H         165.0589  164.8476  207.8246 H        84        0    0.0000
   1299 H         166.6454  162.9556  210.1775 H        84        0    0.0000
   1300 H         166.9793  164.4793  209.3429 H        84        0    0.0000
   1301 H         169.1442  163.5132  209.4111 H        84        0    0.0000
   1302 H         169.5514  161.0753  208.6502 H        84        0    0.0000
   1303 H         167.8047  160.8532  208.6740 H        84        0    0.0000
   1304 C         169.0816  164.6264  211.6206 C.3      85        0    0.0000
   1305 C         168.3360  163.6427  210.7200 C.3      85        0    0.0000
   1306 C         168.2457  162.3167  211.4949 C.3      85        0    0.0000
   1307 C         168.6677  161.1129  210.6422 C.3      85        0    0.0000
   1308 C         169.1135  162.5339  212.7442 C.3      85        0    0.0000
   1309 C         169.0199  164.0377  213.0324 C.3      85        0    0.0000
   1310 C         167.7366  164.4597  213.7709 C.3      85        0    0.0000
   1311 H         170.1290  164.6799  211.2970 H        85        0    0.0000
   1312 H         168.6705  165.6386  211.5536 H        85        0    0.0000
   1313 H         168.8502  163.5404  209.7581 H        85        0    0.0000
   1314 H         167.3264  164.0139  210.5076 H        85        0    0.0000
   1315 H         167.2020  162.1822  211.8123 H        85        0    0.0000
   1316 H         168.0274  160.2498  210.8583 H        85        0    0.0000
   1317 H         169.6912  160.8221  210.9078 H        85        0    0.0000
   1318 H         168.7856  161.9142  213.5844 H        85        0    0.0000
   1319 H         170.1586  162.2735  212.5319 H        85        0    0.0000
   1320 H         169.8938  164.3674  213.6087 H        85        0    0.0000
   1321 H         166.8525  163.9802  213.3372 H        85        0    0.0000
   1322 H         167.5939  165.5412  213.6572 H        85        0    0.0000
   1323 C         171.3528  163.1993  215.8465 C.3      86        0    0.0000
   1324 C         170.2148  163.3381  214.8323 C.3      86        0    0.0000
   1325 C         168.9041  163.1184  215.6087 C.3      86        0    0.0000
   1326 C         167.8065  164.1415  215.2914 C.3      86        0    0.0000
   1327 C         169.3230  163.1502  217.0820 C.3      86        0    0.0000
   1328 C         170.7361  162.5576  217.0942 C.3      86        0    0.0000
   1329 C         170.7281  161.0181  217.0421 C.3      86        0    0.0000
   1330 H         172.1991  162.6409  215.4352 H        86        0    0.0000
   1331 H         171.7221  164.2007  216.1022 H        86        0    0.0000
   1332 H         170.2628  164.3193  214.3471 H        86        0    0.0000
   1333 H         170.3117  162.5821  214.0443 H        86        0    0.0000
   1334 H         168.5334  162.1087  215.3810 H        86        0    0.0000
   1335 H         166.8356  163.7426  215.6084 H        86        0    0.0000
   1336 H         167.9700  165.0662  215.8568 H        86        0    0.0000
   1337 H         168.6247  162.5975  217.7189 H        86        0    0.0000
   1338 H         169.3570  164.1848  217.4473 H        86        0    0.0000
   1339 H         171.2667  162.8898  217.9956 H        86        0    0.0000
   1340 H         171.7465  160.6155  217.0785 H        86        0    0.0000
   1341 H         170.2890  160.6883  216.0931 H        86        0    0.0000
   1342 C         169.8906  160.4053  218.2019 C.3      87        0    0.0000
   1343 C         170.6353  159.3332  219.0103 C.3      87        0    0.0000
   1344 H         169.6389  161.2300  218.8809 H        87        0    0.0000
   1345 H         168.9416  160.0215  217.8095 H        87        0    0.0000
   1346 H         170.4726  158.3331  218.5915 H        87        0    0.0000
   1347 H         171.7114  159.5345  218.9327 H        87        0    0.0000
   1348 C         170.2845  159.3295  220.5385 C.3      88        0    0.0000
   1349 C         171.4969  159.5382  221.4574 C.3      88        0    0.0000
   1350 H         169.5846  160.1584  220.7050 H        88        0    0.0000
   1351 H         169.7459  158.4088  220.7918 H        88        0    0.0000
   1352 H         171.4146  158.9353  222.3694 H        88        0    0.0000
   1353 H         172.3906  159.1848  220.9273 H        88        0    0.0000
   1354 C         168.3831  161.6628  223.4670 C.3      89        0    0.0000
   1355 C         169.6173  160.7930  223.2733 C.3      89        0    0.0000
   1356 C         170.5794  161.7258  222.5304 C.3      89        0    0.0000
   1357 C         171.7585  161.0370  221.8364 C.3      89        0    0.0000
   1358 C         169.6850  162.5896  221.6198 C.3      89        0    0.0000
   1359 C         168.2420  162.3627  222.1114 C.3      89        0    0.0000
   1360 C         167.3386  163.5996  222.1009 C.3      89        0    0.0000
   1361 H         167.4989  161.0680  223.7168 H        89        0    0.0000
   1362 H         168.5559  162.3741  224.2821 H        89        0    0.0000
   1363 H         170.0305  160.4513  224.2273 H        89        0    0.0000
   1364 H         169.3581  159.9100  222.6789 H        89        0    0.0000
   1365 H         171.0118  162.4028  223.2826 H        89        0    0.0000
   1366 H         172.0114  161.5918  220.9252 H        89        0    0.0000
   1367 H         172.6377  161.0867  222.4897 H        89        0    0.0000
   1368 H         169.7595  162.3121  220.5628 H        89        0    0.0000
   1369 H         169.9978  163.6372  221.6868 H        89        0    0.0000
   1370 H         167.7845  161.6359  221.4233 H        89        0    0.0000
   1371 H         167.9552  164.4946  222.2460 H        89        0    0.0000
   1372 H         166.8726  163.6948  221.1130 H        89        0    0.0000
   1373 C         166.2178  163.5833  223.1834 C.3      90        0    0.0000
   1374 C         165.3316  164.8370  223.1829 C.3      90        0    0.0000
   1375 H         165.5810  162.7160  222.9669 H        90        0    0.0000
   1376 H         166.6606  163.4082  224.1710 H        90        0    0.0000
   1377 H         165.9275  165.7468  223.3204 H        90        0    0.0000
   1378 H         164.8577  164.9185  222.1962 H        90        0    0.0000
   1379 C         164.7923  167.2624  227.0504 C.3      91        0    0.0000
   1380 C         165.0613  166.8000  225.6265 C.3      91        0    0.0000
   1381 C         164.5557  165.3519  225.6183 C.3      91        0    0.0000
   1382 C         164.1735  164.7991  224.2394 C.3      91        0    0.0000
   1383 C         163.4445  165.2920  226.6866 C.3      91        0    0.0000
   1384 C         163.4060  166.6846  227.3422 C.3      91        0    0.0000
   1385 C         163.0865  166.6788  228.8392 C.3      91        0    0.0000
   1386 H         165.5451  166.8490  227.7325 H        91        0    0.0000
   1387 H         164.8129  168.3530  227.1377 H        91        0    0.0000
   1388 H         164.5089  167.4345  224.9251 H        91        0    0.0000
   1389 H         166.1235  166.8637  225.3701 H        91        0    0.0000
   1390 H         165.3792  164.7221  225.9868 H        91        0    0.0000
   1391 H         163.8361  163.7620  224.3530 H        91        0    0.0000
   1392 H         163.3198  165.3663  223.8502 H        91        0    0.0000
   1393 H         163.6956  164.5151  227.4195 H        91        0    0.0000
   1394 H         162.4644  165.0322  226.2729 H        91        0    0.0000
   1395 H         162.6603  167.2935  226.8106 H        91        0    0.0000
   1396 H         163.9633  166.3538  229.4118 H        91        0    0.0000
   1397 H         162.8591  167.7007  229.1650 H        91        0    0.0000
   1398 C         161.8793  165.7635  229.1878 C.3      92        0    0.0000
   1399 C         161.1019  166.2048  230.4362 C.3      92        0    0.0000
   1400 H         162.2855  164.7615  229.3763 H        92        0    0.0000
   1401 H         161.2189  165.6754  228.3172 H        92        0    0.0000
   1402 H         161.4756  165.6276  231.2916 H        92        0    0.0000
   1403 H         161.2843  167.2610  230.6670 H        92        0    0.0000
   1404 C         159.5585  165.9413  230.3518 C.3      93        0    0.0000
   1405 C         158.7625  166.5131  231.5337 C.3      93        0    0.0000
   1406 H         159.4230  164.8522  230.3451 H        93        0    0.0000
   1407 H         159.1724  166.3111  229.3947 H        93        0    0.0000
   1408 H         158.1574  167.3505  231.1634 H        93        0    0.0000
   1409 H         158.0607  165.7736  231.9369 H        93        0    0.0000
   1410 C         157.6916  166.6582  235.7620 C.3      94        0    0.0000
   1411 C         159.0670  166.9652  235.1716 C.3      94        0    0.0000
   1412 C         158.8221  167.6771  233.8299 C.3      94        0    0.0000
   1413 C         159.6573  167.0781  232.6908 C.3      94        0    0.0000
   1414 C         157.3043  167.5842  233.6092 C.3      94        0    0.0000
   1415 C         156.7018  167.5597  235.0197 C.3      94        0    0.0000
   1416 C         156.5862  168.9456  235.6803 C.3      94        0    0.0000
   1417 H         157.4451  165.6079  235.5599 H        94        0    0.0000
   1418 H         157.6708  166.7918  236.8481 H        94        0    0.0000
   1419 H         159.6512  166.0446  235.0655 H        94        0    0.0000
   1420 H         159.6279  167.6270  235.8420 H        94        0    0.0000
   1421 H         159.0938  168.7348  233.9551 H        94        0    0.0000
   1422 H         160.3101  166.2849  233.0734 H        94        0    0.0000
   1423 H         160.3118  167.8537  232.2752 H        94        0    0.0000
   1424 H         156.9277  168.4081  232.9953 H        94        0    0.0000
   1425 H         157.0509  166.6483  233.0944 H        94        0    0.0000
   1426 H         155.7125  167.0850  235.0001 H        94        0    0.0000
   1427 H         156.0202  169.6402  235.0503 H        94        0    0.0000
   1428 H         157.5889  169.3745  235.7969 H        94        0    0.0000
   1429 C         157.7562  166.6608  238.6908 C.3      95        0    0.0000
   1430 C         156.9935  166.5808  237.3656 C.3      95        0    0.0000
   1431 C         155.7188  167.4127  237.5442 C.3      95        0    0.0000
   1432 C         155.9299  168.8686  237.0879 C.3      95        0    0.0000
   1433 C         155.4374  167.2513  239.0434 C.3      95        0    0.0000
   1434 C         156.8170  167.3408  239.7007 C.3      95        0    0.0000
   1435 C         156.8362  166.7212  241.1027 C.3      95        0    0.0000
   1436 H         158.0538  165.6548  239.0077 H        95        0    0.0000
   1437 H         158.6738  167.2484  238.5725 H        95        0    0.0000
   1438 H         156.7199  165.5347  237.1779 H        95        0    0.0000
   1439 H         157.6075  166.9076  236.5201 H        95        0    0.0000
   1440 H         154.9017  166.9712  236.9592 H        95        0    0.0000
   1441 H         156.5878  169.3783  237.8023 H        95        0    0.0000
   1442 H         154.9860  169.4239  237.0816 H        95        0    0.0000
   1443 H         154.9927  166.2641  239.2254 H        95        0    0.0000
   1444 H         154.7465  168.0001  239.4424 H        95        0    0.0000
   1445 H         157.0975  168.4009  239.7748 H        95        0    0.0000
   1446 H         157.7886  166.2080  241.2797 H        95        0    0.0000
   1447 H         156.0478  165.9629  241.1764 H        95        0    0.0000
   1448 C         159.3356  167.1665  244.7639 C.3      96        0    0.0000
   1449 C         158.6767  166.8246  243.4363 C.3      96        0    0.0000
   1450 C         157.2906  167.4726  243.5467 C.3      96        0    0.0000
   1451 C         156.6072  167.7892  242.2104 C.3      96        0    0.0000
   1452 C         157.4657  168.6718  244.5011 C.3      96        0    0.0000
   1453 C         158.9269  168.6244  244.9840 C.3      96        0    0.0000
   1454 C         159.1370  169.0702  246.4332 C.3      96        0    0.0000
   1455 H         158.9439  166.5211  245.5596 H        96        0    0.0000
   1456 H         160.4222  167.0425  244.7258 H        96        0    0.0000
   1457 H         159.2661  167.2472  242.6155 H        96        0    0.0000
   1458 H         158.6111  165.7434  243.2792 H        96        0    0.0000
   1459 H         156.6397  166.7522  244.0643 H        96        0    0.0000
   1460 H         155.5287  167.8944  242.3786 H        96        0    0.0000
   1461 H         156.9644  168.7598  241.8465 H        96        0    0.0000
   1462 H         156.7668  168.5650  245.3401 H        96        0    0.0000
   1463 H         157.2464  169.6340  244.0266 H        96        0    0.0000
   1464 H         159.5298  169.2558  244.3152 H        96        0    0.0000
   1465 H         159.8859  169.8698  246.4781 H        96        0    0.0000
   1466 H         158.2024  169.4923  246.8215 H        96        0    0.0000
   1467 C         163.2258  166.9549  246.9617 C.3      97        0    0.0000
   1468 C         162.1221  167.9973  246.8685 C.3      97        0    0.0000
   1469 C         160.8365  167.1608  246.8861 C.3      97        0    0.0000
   1470 C         159.5791  167.9019  247.3584 C.3      97        0    0.0000
   1471 C         161.1835  165.8792  247.6713 C.3      97        0    0.0000
   1472 C         162.6839  165.9742  248.0037 C.3      97        0    0.0000
   1473 C         163.4303  164.6381  247.9819 C.3      97        0    0.0000
   1474 H         163.3669  166.4635  245.9913 H        97        0    0.0000
   1475 H         164.1806  167.3951  247.2650 H        97        0    0.0000
   1476 H         162.1857  168.6754  247.7264 H        97        0    0.0000
   1477 H         162.2053  168.6001  245.9587 H        97        0    0.0000
   1478 H         160.6413  166.8500  245.8489 H        97        0    0.0000
   1479 H         158.7528  167.1854  247.4380 H        97        0    0.0000
   1480 H         159.7525  168.2946  248.3673 H        97        0    0.0000
   1481 H         160.9712  165.0063  247.0414 H        97        0    0.0000
   1482 H         160.5918  165.7618  248.5852 H        97        0    0.0000
   1483 H         162.7866  166.4354  248.9968 H        97        0    0.0000
   1484 H         164.0562  164.5690  247.0843 H        97        0    0.0000
   1485 H         164.1080  164.5876  248.8425 H        97        0    0.0000
   1486 C         158.7832  163.3333  248.8321 C.3      98        0    0.0000
   1487 C         160.0791  162.6518  248.4198 C.3      98        0    0.0000
   1488 C         160.9968  163.8310  248.0910 C.3      98        0    0.0000
   1489 C         162.4693  163.4172  248.0312 C.3      98        0    0.0000
   1490 C         160.6632  164.8688  249.1783 C.3      98        0    0.0000
   1491 C         159.2557  164.5088  249.6969 C.3      98        0    0.0000
   1492 C         158.2728  165.6818  249.8015 C.3      98        0    0.0000
   1493 H         158.1243  162.6572  249.3859 H        98        0    0.0000
   1494 H         158.2451  163.6678  247.9385 H        98        0    0.0000
   1495 H         160.4782  162.0597  249.2523 H        98        0    0.0000
   1496 H         159.9372  161.9862  247.5629 H        98        0    0.0000
   1497 H         160.6922  164.2435  247.1181 H        98        0    0.0000
   1498 H         162.7222  162.7932  248.8966 H        98        0    0.0000
   1499 H         162.6366  162.8013  247.1396 H        98        0    0.0000
   1500 H         161.3752  164.8137  250.0112 H        98        0    0.0000
   1501 H         160.7254  165.8850  248.7749 H        98        0    0.0000
   1502 H         159.3872  164.1231  250.7189 H        98        0    0.0000
   1503 H         157.4071  165.3716  250.3985 H        98        0    0.0000
   1504 H         157.8947  165.9194  248.8000 H        98        0    0.0000
   1505 C         162.5099  166.9116  249.3513 C.3      99        0    0.0000
   1506 C         161.1306  166.2703  249.3550 C.3      99        0    0.0000
   1507 C         160.4089  166.9790  250.5082 C.3      99        0    0.0000
   1508 C         158.8772  166.9728  250.4247 C.3      99        0    0.0000
   1509 C         161.0604  168.3732  250.6139 C.3      99        0    0.0000
   1510 C         162.1998  168.3926  249.5786 C.3      99        0    0.0000
   1511 C         163.4393  169.1828  250.0055 C.3      99        0    0.0000
   1512 H         163.1198  166.5051  250.1673 H        99        0    0.0000
   1513 H         163.0392  166.7394  248.4091 H        99        0    0.0000
   1514 H         160.6420  166.4474  248.3908 H        99        0    0.0000
   1515 H         161.1837  165.1880  249.5095 H        99        0    0.0000
   1516 H         160.6707  166.4397  251.4307 H        99        0    0.0000
   1517 H         158.4655  167.1017  251.4329 H        99        0    0.0000
   1518 H         158.5469  167.8381  249.8378 H        99        0    0.0000
   1519 H         161.4465  168.5103  251.6317 H        99        0    0.0000
   1520 H         160.3564  169.1915  250.4293 H        99        0    0.0000
   1521 H         161.8043  168.8094  248.6409 H        99        0    0.0000
   1522 H         163.8243  168.7975  250.9571 H        99        0    0.0000
   1523 H         164.2338  169.0392  249.2636 H        99        0    0.0000
   1524 H         163.2413  170.2501  250.1040 H        99        0    0.0000
   1525 H         197.7517   97.7705   76.7814 H         0        0    0.0000
@<TRIPOS>BOND
     1     1     2      1
     2     1     6      1
     3     1     8      1
     4     1     9      1
     5     2     3      1
     6     2    10      1
     7     2    11      1
     8     3     4      1
     9     3     5      1
    10     3    12      1
    11     4    13      1
    12     4    14      1
    13     4  1525      H
    14     5     6      1
    15     5    15      1
    16     5    16      1
    17     6     7      1
    18     6    17      1
    19     7    18      1
    20     7    19      1
    21     7    23      1
    22    20    21      1
    23    20    25      1
    24    20    27      1
    25    20    28      1
    26    21    22      1
    27    21    29      1
    28    21    30      1
    29    22    23      1
    30    22    24      1
    31    22    31      1
    32    23    32      1
    33    23    33      1
    34    24    25      1
    35    24    34      1
    36    24    35      1
    37    25    26      1
    38    25    36      1
    39    26    37      1
    40    26    38      1
    41    26    39      1
    42    39    40      1
    43    39    41      1
    44    39    42      1
    45    40    43      1
    46    40    44      1
    47    40    48      1
    48    45    46      1
    49    45    50      1
    50    45    52      1
    51    45    53      1
    52    46    47      1
    53    46    54      1
    54    46    55      1
    55    47    48      1
    56    47    49      1
    57    47    56      1
    58    48    57      1
    59    48    58      1
    60    49    50      1
    61    49    59      1
    62    49    60      1
    63    50    51      1
    64    50    61      1
    65    51    62      1
    66    51    63      1
    67    51    64      1
    68    64    65      1
    69    64    66      1
    70    64    67      1
    71    65    68      1
    72    65    69      1
    73    65    73      1
    74    70    71      1
    75    70    75      1
    76    70    77      1
    77    70    78      1
    78    71    72      1
    79    71    79      1
    80    71    80      1
    81    72    73      1
    82    72    74      1
    83    72    81      1
    84    73    82      1
    85    73    83      1
    86    74    75      1
    87    74    84      1
    88    74    85      1
    89    75    76      1
    90    75    86      1
    91    76    87      1
    92    76    88      1
    93    76    92      1
    94    89    90      1
    95    89    94      1
    96    89    96      1
    97    89    97      1
    98    90    91      1
    99    90    98      1
   100    90    99      1
   101    91    92      1
   102    91    93      1
   103    91   100      1
   104    92   101      1
   105    92   102      1
   106    93    94      1
   107    93   103      1
   108    93   104      1
   109    94    95      1
   110    94   105      1
   111    95   106      1
   112    95   107      1
   113    95   108      1
   114   108   109      1
   115   108   110      1
   116   108   111      1
   117   109   112      1
   118   109   113      1
   119   109   114      1
   120   114   115      1
   121   114   116      1
   122   114   117      1
   123   115   118      1
   124   115   119      1
   125   115   120      1
   126   120   121      1
   127   120   122      1
   128   120   123      1
   129   121   124      1
   130   121   125      1
   131   121   126      1
   132   126   127      1
   133   126   128      1
   134   126   129      1
   135   127   130      1
   136   127   131      1
   137   127   135      1
   138   132   133      1
   139   132   137      1
   140   132   139      1
   141   132   140      1
   142   133   134      1
   143   133   141      1
   144   133   142      1
   145   134   135      1
   146   134   136      1
   147   134   143      1
   148   135   144      1
   149   135   145      1
   150   136   137      1
   151   136   146      1
   152   136   147      1
   153   137   138      1
   154   137   148      1
   155   138   149      1
   156   138   150      1
   157   138   154      1
   158   151   152      1
   159   151   156      1
   160   151   158      1
   161   151   159      1
   162   152   153      1
   163   152   160      1
   164   152   161      1
   165   153   154      1
   166   153   155      1
   167   153   162      1
   168   154   163      1
   169   154   164      1
   170   155   156      1
   171   155   165      1
   172   155   166      1
   173   156   157      1
   174   156   167      1
   175   157   168      1
   176   157   169      1
   177   157   170      1
   178   170   171      1
   179   170   172      1
   180   170   173      1
   181   171   174      1
   182   171   175      1
   183   171   179      1
   184   176   177      1
   185   176   181      1
   186   176   183      1
   187   176   184      1
   188   177   178      1
   189   177   185      1
   190   177   186      1
   191   178   179      1
   192   178   180      1
   193   178   187      1
   194   179   188      1
   195   179   189      1
   196   180   181      1
   197   180   190      1
   198   180   191      1
   199   181   182      1
   200   181   192      1
   201   182   193      1
   202   182   194      1
   203   182   195      1
   204   195   196      1
   205   195   197      1
   206   195   198      1
   207   196   199      1
   208   196   200      1
   209   196   204      1
   210   201   202      1
   211   201   206      1
   212   201   208      1
   213   201   209      1
   214   202   203      1
   215   202   210      1
   216   202   211      1
   217   203   204      1
   218   203   205      1
   219   203   212      1
   220   204   213      1
   221   204   214      1
   222   205   206      1
   223   205   215      1
   224   205   216      1
   225   206   207      1
   226   206   217      1
   227   207   218      1
   228   207   219      1
   229   207   223      1
   230   220   221      1
   231   220   225      1
   232   220   227      1
   233   220   228      1
   234   221   222      1
   235   221   229      1
   236   221   230      1
   237   222   223      1
   238   222   224      1
   239   222   231      1
   240   223   232      1
   241   223   233      1
   242   224   225      1
   243   224   234      1
   244   224   235      1
   245   225   226      1
   246   225   236      1
   247   226   237      1
   248   226   238      1
   249   226   242      1
   250   239   240      1
   251   239   244      1
   252   239   246      1
   253   239   247      1
   254   240   241      1
   255   240   248      1
   256   240   249      1
   257   241   242      1
   258   241   243      1
   259   241   250      1
   260   242   251      1
   261   242   252      1
   262   243   244      1
   263   243   253      1
   264   243   254      1
   265   244   245      1
   266   244   255      1
   267   245   256      1
   268   245   257      1
   269   245   261      1
   270   258   259      1
   271   258   263      1
   272   258   265      1
   273   258   266      1
   274   259   260      1
   275   259   267      1
   276   259   268      1
   277   260   261      1
   278   260   262      1
   279   260   269      1
   280   261   270      1
   281   261   271      1
   282   262   263      1
   283   262   272      1
   284   262   273      1
   285   263   264      1
   286   263   274      1
   287   264   275      1
   288   264   276      1
   289   264   277      1
   290   277   278      1
   291   277   279      1
   292   277   280      1
   293   278   281      1
   294   278   282      1
   295   278   286      1
   296   283   284      1
   297   283   288      1
   298   283   290      1
   299   283   291      1
   300   284   285      1
   301   284   292      1
   302   284   293      1
   303   285   286      1
   304   285   287      1
   305   285   294      1
   306   286   295      1
   307   286   296      1
   308   287   288      1
   309   287   297      1
   310   287   298      1
   311   288   289      1
   312   288   299      1
   313   289   300      1
   314   289   301      1
   315   289   305      1
   316   302   303      1
   317   302   307      1
   318   302   309      1
   319   302   310      1
   320   303   304      1
   321   303   311      1
   322   303   312      1
   323   304   305      1
   324   304   306      1
   325   304   313      1
   326   305   314      1
   327   305   315      1
   328   306   307      1
   329   306   316      1
   330   306   317      1
   331   307   308      1
   332   307   318      1
   333   308   319      1
   334   308   320      1
   335   308   324      1
   336   321   322      1
   337   321   326      1
   338   321   328      1
   339   321   329      1
   340   322   323      1
   341   322   330      1
   342   322   331      1
   343   323   324      1
   344   323   325      1
   345   323   332      1
   346   324   333      1
   347   324   334      1
   348   325   326      1
   349   325   335      1
   350   325   336      1
   351   326   327      1
   352   326   337      1
   353   327   338      1
   354   327   339      1
   355   327   343      1
   356   340   341      1
   357   340   345      1
   358   340   347      1
   359   340   348      1
   360   341   342      1
   361   341   349      1
   362   341   350      1
   363   342   343      1
   364   342   344      1
   365   342   351      1
   366   343   352      1
   367   343   353      1
   368   344   345      1
   369   344   354      1
   370   344   355      1
   371   345   346      1
   372   345   356      1
   373   346   357      1
   374   346   358      1
   375   346   362      1
   376   359   360      1
   377   359   364      1
   378   359   366      1
   379   359   367      1
   380   360   361      1
   381   360   368      1
   382   360   369      1
   383   361   362      1
   384   361   363      1
   385   361   370      1
   386   362   371      1
   387   362   372      1
   388   363   364      1
   389   363   373      1
   390   363   374      1
   391   364   365      1
   392   364   375      1
   393   365   376      1
   394   365   377      1
   395   365   381      1
   396   378   379      1
   397   378   383      1
   398   378   385      1
   399   378   386      1
   400   379   380      1
   401   379   387      1
   402   379   388      1
   403   380   381      1
   404   380   382      1
   405   380   389      1
   406   381   390      1
   407   381   391      1
   408   382   383      1
   409   382   392      1
   410   382   393      1
   411   383   384      1
   412   383   394      1
   413   384   395      1
   414   384   396      1
   415   384   397      1
   416   397   398      1
   417   397   399      1
   418   397   400      1
   419   398   401      1
   420   398   402      1
   421   398   406      1
   422   403   404      1
   423   403   408      1
   424   403   410      1
   425   403   411      1
   426   404   405      1
   427   404   412      1
   428   404   413      1
   429   405   406      1
   430   405   407      1
   431   405   414      1
   432   406   415      1
   433   406   416      1
   434   407   408      1
   435   407   417      1
   436   407   418      1
   437   408   409      1
   438   408   419      1
   439   409   420      1
   440   409   421      1
   441   409   425      1
   442   422   423      1
   443   422   427      1
   444   422   429      1
   445   422   430      1
   446   423   424      1
   447   423   431      1
   448   423   432      1
   449   424   425      1
   450   424   426      1
   451   424   433      1
   452   425   434      1
   453   425   435      1
   454   426   427      1
   455   426   436      1
   456   426   437      1
   457   427   428      1
   458   427   438      1
   459   428   439      1
   460   428   440      1
   461   428   444      1
   462   441   442      1
   463   441   446      1
   464   441   448      1
   465   441   449      1
   466   442   443      1
   467   442   450      1
   468   442   451      1
   469   443   444      1
   470   443   445      1
   471   443   452      1
   472   444   453      1
   473   444   454      1
   474   445   446      1
   475   445   455      1
   476   445   456      1
   477   446   447      1
   478   446   457      1
   479   447   458      1
   480   447   459      1
   481   447   463      1
   482   460   461      1
   483   460   465      1
   484   460   467      1
   485   460   468      1
   486   461   462      1
   487   461   469      1
   488   461   470      1
   489   462   463      1
   490   462   464      1
   491   462   471      1
   492   463   472      1
   493   463   473      1
   494   464   465      1
   495   464   474      1
   496   464   475      1
   497   465   466      1
   498   465   476      1
   499   466   477      1
   500   466   478      1
   501   466   479      1
   502   479   480      1
   503   479   481      1
   504   479   482      1
   505   480   483      1
   506   480   484      1
   507   480   488      1
   508   485   486      1
   509   485   490      1
   510   485   492      1
   511   485   493      1
   512   486   487      1
   513   486   494      1
   514   486   495      1
   515   487   488      1
   516   487   489      1
   517   487   496      1
   518   488   497      1
   519   488   498      1
   520   489   490      1
   521   489   499      1
   522   489   500      1
   523   490   491      1
   524   490   501      1
   525   491   502      1
   526   491   503      1
   527   491   507      1
   528   504   505      1
   529   504   509      1
   530   504   511      1
   531   504   512      1
   532   505   506      1
   533   505   513      1
   534   505   514      1
   535   506   507      1
   536   506   508      1
   537   506   515      1
   538   507   516      1
   539   507   517      1
   540   508   509      1
   541   508   518      1
   542   508   519      1
   543   509   510      1
   544   509   520      1
   545   510   521      1
   546   510   522      1
   547   510   526      1
   548   523   524      1
   549   523   528      1
   550   523   530      1
   551   523   531      1
   552   524   525      1
   553   524   532      1
   554   524   533      1
   555   525   526      1
   556   525   527      1
   557   525   534      1
   558   526   535      1
   559   526   536      1
   560   527   528      1
   561   527   537      1
   562   527   538      1
   563   528   529      1
   564   528   539      1
   565   529   540      1
   566   529   541      1
   567   529   545      1
   568   542   543      1
   569   542   547      1
   570   542   549      1
   571   542   550      1
   572   543   544      1
   573   543   551      1
   574   543   552      1
   575   544   545      1
   576   544   546      1
   577   544   553      1
   578   545   554      1
   579   545   555      1
   580   546   547      1
   581   546   556      1
   582   546   557      1
   583   547   548      1
   584   547   558      1
   585   548   559      1
   586   548   560      1
   587   548   564      1
   588   561   562      1
   589   561   566      1
   590   561   568      1
   591   561   569      1
   592   562   563      1
   593   562   570      1
   594   562   571      1
   595   563   564      1
   596   563   565      1
   597   563   572      1
   598   564   573      1
   599   564   574      1
   600   565   566      1
   601   565   575      1
   602   565   576      1
   603   566   567      1
   604   566   577      1
   605   567   578      1
   606   567   579      1
   607   567   583      1
   608   580   581      1
   609   580   585      1
   610   580   587      1
   611   580   588      1
   612   581   582      1
   613   581   589      1
   614   581   590      1
   615   582   583      1
   616   582   584      1
   617   582   591      1
   618   583   592      1
   619   583   593      1
   620   584   585      1
   621   584   594      1
   622   584   595      1
   623   585   586      1
   624   585   596      1
   625   586   597      1
   626   586   598      1
   627   586   602      1
   628   599   600      1
   629   599   604      1
   630   599   606      1
   631   599   607      1
   632   600   601      1
   633   600   608      1
   634   600   609      1
   635   601   602      1
   636   601   603      1
   637   601   610      1
   638   602   611      1
   639   602   612      1
   640   603   604      1
   641   603   613      1
   642   603   614      1
   643   604   605      1
   644   604   615      1
   645   605   616      1
   646   605   617      1
   647   605   621      1
   648   618   619      1
   649   618   623      1
   650   618   625      1
   651   618   626      1
   652   619   620      1
   653   619   627      1
   654   619   628      1
   655   620   621      1
   656   620   622      1
   657   620   629      1
   658   621   630      1
   659   621   631      1
   660   622   623      1
   661   622   632      1
   662   622   633      1
   663   623   624      1
   664   623   634      1
   665   624   635      1
   666   624   636      1
   667   624   640      1
   668   637   638      1
   669   637   642      1
   670   637   644      1
   671   637   645      1
   672   638   639      1
   673   638   646      1
   674   638   647      1
   675   639   640      1
   676   639   641      1
   677   639   648      1
   678   640   649      1
   679   640   650      1
   680   641   642      1
   681   641   651      1
   682   641   652      1
   683   642   643      1
   684   642   653      1
   685   643   654      1
   686   643   655      1
   687   643   659      1
   688   656   657      1
   689   656   661      1
   690   656   663      1
   691   656   664      1
   692   657   658      1
   693   657   665      1
   694   657   666      1
   695   658   659      1
   696   658   660      1
   697   658   667      1
   698   659   668      1
   699   659   669      1
   700   660   661      1
   701   660   670      1
   702   660   671      1
   703   661   662      1
   704   661   672      1
   705   662   673      1
   706   662   674      1
   707   662   675      1
   708   675   676      1
   709   675   677      1
   710   675   678      1
   711   676   679      1
   712   676   680      1
   713   676   684      1
   714   681   682      1
   715   681   686      1
   716   681   688      1
   717   681   689      1
   718   682   683      1
   719   682   690      1
   720   682   691      1
   721   683   684      1
   722   683   685      1
   723   683   692      1
   724   684   693      1
   725   684   694      1
   726   685   686      1
   727   685   695      1
   728   685   696      1
   729   686   687      1
   730   686   697      1
   731   687   698      1
   732   687   699      1
   733   687   703      1
   734   700   701      1
   735   700   705      1
   736   700   707      1
   737   700   708      1
   738   701   702      1
   739   701   709      1
   740   701   710      1
   741   702   703      1
   742   702   704      1
   743   702   711      1
   744   703   712      1
   745   703   713      1
   746   704   705      1
   747   704   714      1
   748   704   715      1
   749   705   706      1
   750   705   716      1
   751   706   717      1
   752   706   718      1
   753   706   722      1
   754   719   720      1
   755   719   724      1
   756   719   726      1
   757   719   727      1
   758   720   721      1
   759   720   728      1
   760   720   729      1
   761   721   722      1
   762   721   723      1
   763   721   730      1
   764   722   731      1
   765   722   732      1
   766   723   724      1
   767   723   733      1
   768   723   734      1
   769   724   725      1
   770   724   735      1
   771   725   736      1
   772   725   737      1
   773   725   741      1
   774   738   739      1
   775   738   743      1
   776   738   745      1
   777   738   746      1
   778   739   740      1
   779   739   747      1
   780   739   748      1
   781   740   741      1
   782   740   742      1
   783   740   749      1
   784   741   750      1
   785   741   751      1
   786   742   743      1
   787   742   752      1
   788   742   753      1
   789   743   744      1
   790   743   754      1
   791   744   755      1
   792   744   756      1
   793   744   760      1
   794   757   758      1
   795   757   762      1
   796   757   764      1
   797   757   765      1
   798   758   759      1
   799   758   766      1
   800   758   767      1
   801   759   760      1
   802   759   761      1
   803   759   768      1
   804   760   769      1
   805   760   770      1
   806   761   762      1
   807   761   771      1
   808   761   772      1
   809   762   763      1
   810   762   773      1
   811   763   774      1
   812   763   775      1
   813   763   779      1
   814   776   777      1
   815   776   781      1
   816   776   783      1
   817   776   784      1
   818   777   778      1
   819   777   785      1
   820   777   786      1
   821   778   779      1
   822   778   780      1
   823   778   787      1
   824   779   788      1
   825   779   789      1
   826   780   781      1
   827   780   790      1
   828   780   791      1
   829   781   782      1
   830   781   792      1
   831   782   793      1
   832   782   794      1
   833   782   795      1
   834   795   796      1
   835   795   797      1
   836   795   798      1
   837   796   799      1
   838   796   800      1
   839   796   804      1
   840   801   802      1
   841   801   806      1
   842   801   808      1
   843   801   809      1
   844   802   803      1
   845   802   810      1
   846   802   811      1
   847   803   804      1
   848   803   805      1
   849   803   812      1
   850   804   813      1
   851   804   814      1
   852   805   806      1
   853   805   815      1
   854   805   816      1
   855   806   807      1
   856   806   817      1
   857   807   818      1
   858   807   819      1
   859   807   823      1
   860   820   821      1
   861   820   825      1
   862   820   827      1
   863   820   828      1
   864   821   822      1
   865   821   829      1
   866   821   830      1
   867   822   823      1
   868   822   824      1
   869   822   831      1
   870   823   832      1
   871   823   833      1
   872   824   825      1
   873   824   834      1
   874   824   835      1
   875   825   826      1
   876   825   836      1
   877   826   837      1
   878   826   838      1
   879   826   839      1
   880   839   840      1
   881   839   841      1
   882   839   842      1
   883   840   843      1
   884   840   844      1
   885   840   848      1
   886   845   846      1
   887   845   850      1
   888   845   852      1
   889   845   853      1
   890   846   847      1
   891   846   854      1
   892   846   855      1
   893   847   848      1
   894   847   849      1
   895   847   856      1
   896   848   857      1
   897   848   858      1
   898   849   850      1
   899   849   859      1
   900   849   860      1
   901   850   851      1
   902   850   861      1
   903   851   862      1
   904   851   863      1
   905   851   867      1
   906   864   865      1
   907   864   869      1
   908   864   871      1
   909   864   872      1
   910   865   866      1
   911   865   873      1
   912   865   874      1
   913   866   867      1
   914   866   868      1
   915   866   875      1
   916   867   876      1
   917   867   877      1
   918   868   869      1
   919   868   878      1
   920   868   879      1
   921   869   870      1
   922   869   880      1
   923   870   881      1
   924   870   882      1
   925   870   883      1
   926   883   884      1
   927   883   885      1
   928   883   886      1
   929   884   887      1
   930   884   888      1
   931   884   892      1
   932   889   890      1
   933   889   894      1
   934   889   896      1
   935   889   897      1
   936   890   891      1
   937   890   898      1
   938   890   899      1
   939   891   892      1
   940   891   893      1
   941   891   900      1
   942   892   901      1
   943   892   902      1
   944   893   894      1
   945   893   903      1
   946   893   904      1
   947   894   895      1
   948   894   905      1
   949   895   906      1
   950   895   907      1
   951   895   908      1
   952   908   909      1
   953   908   910      1
   954   908   911      1
   955   909   912      1
   956   909   913      1
   957   909   917      1
   958   914   915      1
   959   914   919      1
   960   914   921      1
   961   914   922      1
   962   915   916      1
   963   915   923      1
   964   915   924      1
   965   916   917      1
   966   916   918      1
   967   916   925      1
   968   917   926      1
   969   917   927      1
   970   918   919      1
   971   918   928      1
   972   918   929      1
   973   919   920      1
   974   919   930      1
   975   920   931      1
   976   920   932      1
   977   920   936      1
   978   933   934      1
   979   933   938      1
   980   933   940      1
   981   933   941      1
   982   934   935      1
   983   934   942      1
   984   934   943      1
   985   935   936      1
   986   935   937      1
   987   935   944      1
   988   936   945      1
   989   936   946      1
   990   937   938      1
   991   937   947      1
   992   937   948      1
   993   938   939      1
   994   938   949      1
   995   939   950      1
   996   939   951      1
   997   939   955      1
   998   952   953      1
   999   952   957      1
  1000   952   959      1
  1001   952   960      1
  1002   953   954      1
  1003   953   961      1
  1004   953   962      1
  1005   954   955      1
  1006   954   956      1
  1007   954   963      1
  1008   955   964      1
  1009   955   965      1
  1010   956   957      1
  1011   956   966      1
  1012   956   967      1
  1013   957   958      1
  1014   957   968      1
  1015   958   969      1
  1016   958   970      1
  1017   958   971      1
  1018   971   972      1
  1019   971   973      1
  1020   971   974      1
  1021   972   975      1
  1022   972   976      1
  1023   972   980      1
  1024   977   978      1
  1025   977   982      1
  1026   977   984      1
  1027   977   985      1
  1028   978   979      1
  1029   978   986      1
  1030   978   987      1
  1031   979   980      1
  1032   979   981      1
  1033   979   988      1
  1034   980   989      1
  1035   980   990      1
  1036   981   982      1
  1037   981   991      1
  1038   981   992      1
  1039   982   983      1
  1040   982   993      1
  1041   983   994      1
  1042   983   995      1
  1043   983   999      1
  1044   996   997      1
  1045   996  1001      1
  1046   996  1003      1
  1047   996  1004      1
  1048   997   998      1
  1049   997  1005      1
  1050   997  1006      1
  1051   998   999      1
  1052   998  1000      1
  1053   998  1007      1
  1054   999  1008      1
  1055   999  1009      1
  1056  1000  1001      1
  1057  1000  1010      1
  1058  1000  1011      1
  1059  1001  1002      1
  1060  1001  1012      1
  1061  1002  1013      1
  1062  1002  1014      1
  1063  1002  1015      1
  1064  1015  1016      1
  1065  1015  1017      1
  1066  1015  1018      1
  1067  1016  1019      1
  1068  1016  1020      1
  1069  1016  1024      1
  1070  1021  1022      1
  1071  1021  1026      1
  1072  1021  1028      1
  1073  1021  1029      1
  1074  1022  1023      1
  1075  1022  1030      1
  1076  1022  1031      1
  1077  1023  1024      1
  1078  1023  1025      1
  1079  1023  1032      1
  1080  1024  1033      1
  1081  1024  1034      1
  1082  1025  1026      1
  1083  1025  1035      1
  1084  1025  1036      1
  1085  1026  1027      1
  1086  1026  1037      1
  1087  1027  1038      1
  1088  1027  1039      1
  1089  1027  1043      1
  1090  1040  1041      1
  1091  1040  1045      1
  1092  1040  1047      1
  1093  1040  1048      1
  1094  1041  1042      1
  1095  1041  1049      1
  1096  1041  1050      1
  1097  1042  1043      1
  1098  1042  1044      1
  1099  1042  1051      1
  1100  1043  1052      1
  1101  1043  1053      1
  1102  1044  1045      1
  1103  1044  1054      1
  1104  1044  1055      1
  1105  1045  1046      1
  1106  1045  1056      1
  1107  1046  1057      1
  1108  1046  1058      1
  1109  1046  1059      1
  1110  1059  1060      1
  1111  1059  1061      1
  1112  1059  1062      1
  1113  1060  1063      1
  1114  1060  1064      1
  1115  1060  1068      1
  1116  1065  1066      1
  1117  1065  1070      1
  1118  1065  1072      1
  1119  1065  1073      1
  1120  1066  1067      1
  1121  1066  1074      1
  1122  1066  1075      1
  1123  1067  1068      1
  1124  1067  1069      1
  1125  1067  1076      1
  1126  1068  1077      1
  1127  1068  1078      1
  1128  1069  1070      1
  1129  1069  1079      1
  1130  1069  1080      1
  1131  1070  1071      1
  1132  1070  1081      1
  1133  1071  1082      1
  1134  1071  1083      1
  1135  1071  1087      1
  1136  1084  1085      1
  1137  1084  1089      1
  1138  1084  1091      1
  1139  1084  1092      1
  1140  1085  1086      1
  1141  1085  1093      1
  1142  1085  1094      1
  1143  1086  1087      1
  1144  1086  1088      1
  1145  1086  1095      1
  1146  1087  1096      1
  1147  1087  1097      1
  1148  1088  1089      1
  1149  1088  1098      1
  1150  1088  1099      1
  1151  1089  1090      1
  1152  1089  1100      1
  1153  1090  1101      1
  1154  1090  1102      1
  1155  1090  1103      1
  1156  1103  1104      1
  1157  1103  1105      1
  1158  1103  1106      1
  1159  1104  1107      1
  1160  1104  1108      1
  1161  1104  1109      1
  1162  1109  1110      1
  1163  1109  1111      1
  1164  1109  1112      1
  1165  1110  1113      1
  1166  1110  1114      1
  1167  1110  1118      1
  1168  1115  1116      1
  1169  1115  1120      1
  1170  1115  1122      1
  1171  1115  1123      1
  1172  1116  1117      1
  1173  1116  1124      1
  1174  1116  1125      1
  1175  1117  1118      1
  1176  1117  1119      1
  1177  1117  1126      1
  1178  1118  1127      1
  1179  1118  1128      1
  1180  1119  1120      1
  1181  1119  1129      1
  1182  1119  1130      1
  1183  1120  1121      1
  1184  1120  1131      1
  1185  1121  1132      1
  1186  1121  1133      1
  1187  1121  1137      1
  1188  1134  1135      1
  1189  1134  1139      1
  1190  1134  1141      1
  1191  1134  1142      1
  1192  1135  1136      1
  1193  1135  1143      1
  1194  1135  1144      1
  1195  1136  1137      1
  1196  1136  1138      1
  1197  1136  1145      1
  1198  1137  1146      1
  1199  1137  1147      1
  1200  1138  1139      1
  1201  1138  1148      1
  1202  1138  1149      1
  1203  1139  1140      1
  1204  1139  1150      1
  1205  1140  1151      1
  1206  1140  1152      1
  1207  1140  1153      1
  1208  1153  1154      1
  1209  1153  1155      1
  1210  1153  1156      1
  1211  1154  1157      1
  1212  1154  1158      1
  1213  1154  1162      1
  1214  1159  1160      1
  1215  1159  1164      1
  1216  1159  1166      1
  1217  1159  1167      1
  1218  1160  1161      1
  1219  1160  1168      1
  1220  1160  1169      1
  1221  1161  1162      1
  1222  1161  1163      1
  1223  1161  1170      1
  1224  1162  1171      1
  1225  1162  1172      1
  1226  1163  1164      1
  1227  1163  1173      1
  1228  1163  1174      1
  1229  1164  1165      1
  1230  1164  1175      1
  1231  1165  1176      1
  1232  1165  1177      1
  1233  1165  1181      1
  1234  1178  1179      1
  1235  1178  1183      1
  1236  1178  1185      1
  1237  1178  1186      1
  1238  1179  1180      1
  1239  1179  1187      1
  1240  1179  1188      1
  1241  1180  1181      1
  1242  1180  1182      1
  1243  1180  1189      1
  1244  1181  1190      1
  1245  1181  1191      1
  1246  1182  1183      1
  1247  1182  1192      1
  1248  1182  1193      1
  1249  1183  1184      1
  1250  1183  1194      1
  1251  1184  1195      1
  1252  1184  1196      1
  1253  1184  1200      1
  1254  1197  1198      1
  1255  1197  1202      1
  1256  1197  1204      1
  1257  1197  1205      1
  1258  1198  1199      1
  1259  1198  1206      1
  1260  1198  1207      1
  1261  1199  1200      1
  1262  1199  1201      1
  1263  1199  1208      1
  1264  1200  1209      1
  1265  1200  1210      1
  1266  1201  1202      1
  1267  1201  1211      1
  1268  1201  1212      1
  1269  1202  1203      1
  1270  1202  1213      1
  1271  1203  1214      1
  1272  1203  1215      1
  1273  1203  1219      1
  1274  1216  1217      1
  1275  1216  1221      1
  1276  1216  1223      1
  1277  1216  1224      1
  1278  1217  1218      1
  1279  1217  1225      1
  1280  1217  1226      1
  1281  1218  1219      1
  1282  1218  1220      1
  1283  1218  1227      1
  1284  1219  1228      1
  1285  1219  1229      1
  1286  1220  1221      1
  1287  1220  1230      1
  1288  1220  1231      1
  1289  1221  1222      1
  1290  1221  1232      1
  1291  1222  1233      1
  1292  1222  1234      1
  1293  1222  1235      1
  1294  1235  1236      1
  1295  1235  1237      1
  1296  1235  1238      1
  1297  1236  1239      1
  1298  1236  1240      1
  1299  1236  1244      1
  1300  1241  1242      1
  1301  1241  1246      1
  1302  1241  1248      1
  1303  1241  1249      1
  1304  1242  1243      1
  1305  1242  1250      1
  1306  1242  1251      1
  1307  1243  1244      1
  1308  1243  1245      1
  1309  1243  1252      1
  1310  1244  1253      1
  1311  1244  1254      1
  1312  1245  1246      1
  1313  1245  1255      1
  1314  1245  1256      1
  1315  1246  1247      1
  1316  1246  1257      1
  1317  1247  1258      1
  1318  1247  1259      1
  1319  1247  1260      1
  1320  1260  1261      1
  1321  1260  1262      1
  1322  1260  1263      1
  1323  1261  1264      1
  1324  1261  1265      1
  1325  1261  1269      1
  1326  1266  1267      1
  1327  1266  1271      1
  1328  1266  1273      1
  1329  1266  1274      1
  1330  1267  1268      1
  1331  1267  1275      1
  1332  1267  1276      1
  1333  1268  1269      1
  1334  1268  1270      1
  1335  1268  1277      1
  1336  1269  1278      1
  1337  1269  1279      1
  1338  1270  1271      1
  1339  1270  1280      1
  1340  1270  1281      1
  1341  1271  1272      1
  1342  1271  1282      1
  1343  1272  1283      1
  1344  1272  1284      1
  1345  1272  1288      1
  1346  1285  1286      1
  1347  1285  1290      1
  1348  1285  1292      1
  1349  1285  1293      1
  1350  1286  1287      1
  1351  1286  1294      1
  1352  1286  1295      1
  1353  1287  1288      1
  1354  1287  1289      1
  1355  1287  1296      1
  1356  1288  1297      1
  1357  1288  1298      1
  1358  1289  1290      1
  1359  1289  1299      1
  1360  1289  1300      1
  1361  1290  1291      1
  1362  1290  1301      1
  1363  1291  1302      1
  1364  1291  1303      1
  1365  1291  1307      1
  1366  1304  1305      1
  1367  1304  1309      1
  1368  1304  1311      1
  1369  1304  1312      1
  1370  1305  1306      1
  1371  1305  1313      1
  1372  1305  1314      1
  1373  1306  1307      1
  1374  1306  1308      1
  1375  1306  1315      1
  1376  1307  1316      1
  1377  1307  1317      1
  1378  1308  1309      1
  1379  1308  1318      1
  1380  1308  1319      1
  1381  1309  1310      1
  1382  1309  1320      1
  1383  1310  1321      1
  1384  1310  1322      1
  1385  1310  1326      1
  1386  1323  1324      1
  1387  1323  1328      1
  1388  1323  1330      1
  1389  1323  1331      1
  1390  1324  1325      1
  1391  1324  1332      1
  1392  1324  1333      1
  1393  1325  1326      1
  1394  1325  1327      1
  1395  1325  1334      1
  1396  1326  1335      1
  1397  1326  1336      1
  1398  1327  1328      1
  1399  1327  1337      1
  1400  1327  1338      1
  1401  1328  1329      1
  1402  1328  1339      1
  1403  1329  1340      1
  1404  1329  1341      1
  1405  1329  1342      1
  1406  1342  1343      1
  1407  1342  1344      1
  1408  1342  1345      1
  1409  1343  1346      1
  1410  1343  1347      1
  1411  1343  1348      1
  1412  1348  1349      1
  1413  1348  1350      1
  1414  1348  1351      1
  1415  1349  1352      1
  1416  1349  1353      1
  1417  1349  1357      1
  1418  1354  1355      1
  1419  1354  1359      1
  1420  1354  1361      1
  1421  1354  1362      1
  1422  1355  1356      1
  1423  1355  1363      1
  1424  1355  1364      1
  1425  1356  1357      1
  1426  1356  1358      1
  1427  1356  1365      1
  1428  1357  1366      1
  1429  1357  1367      1
  1430  1358  1359      1
  1431  1358  1368      1
  1432  1358  1369      1
  1433  1359  1360      1
  1434  1359  1370      1
  1435  1360  1371      1
  1436  1360  1372      1
  1437  1360  1373      1
  1438  1373  1374      1
  1439  1373  1375      1
  1440  1373  1376      1
  1441  1374  1377      1
  1442  1374  1378      1
  1443  1374  1382      1
  1444  1379  1380      1
  1445  1379  1384      1
  1446  1379  1386      1
  1447  1379  1387      1
  1448  1380  1381      1
  1449  1380  1388      1
  1450  1380  1389      1
  1451  1381  1382      1
  1452  1381  1383      1
  1453  1381  1390      1
  1454  1382  1391      1
  1455  1382  1392      1
  1456  1383  1384      1
  1457  1383  1393      1
  1458  1383  1394      1
  1459  1384  1385      1
  1460  1384  1395      1
  1461  1385  1396      1
  1462  1385  1397      1
  1463  1385  1398      1
  1464  1398  1399      1
  1465  1398  1400      1
  1466  1398  1401      1
  1467  1399  1402      1
  1468  1399  1403      1
  1469  1399  1404      1
  1470  1404  1405      1
  1471  1404  1406      1
  1472  1404  1407      1
  1473  1405  1408      1
  1474  1405  1409      1
  1475  1405  1413      1
  1476  1410  1411      1
  1477  1410  1415      1
  1478  1410  1417      1
  1479  1410  1418      1
  1480  1411  1412      1
  1481  1411  1419      1
  1482  1411  1420      1
  1483  1412  1413      1
  1484  1412  1414      1
  1485  1412  1421      1
  1486  1413  1422      1
  1487  1413  1423      1
  1488  1414  1415      1
  1489  1414  1424      1
  1490  1414  1425      1
  1491  1415  1416      1
  1492  1415  1426      1
  1493  1416  1427      1
  1494  1416  1428      1
  1495  1416  1432      1
  1496  1429  1430      1
  1497  1429  1434      1
  1498  1429  1436      1
  1499  1429  1437      1
  1500  1430  1431      1
  1501  1430  1438      1
  1502  1430  1439      1
  1503  1431  1432      1
  1504  1431  1433      1
  1505  1431  1440      1
  1506  1432  1441      1
  1507  1432  1442      1
  1508  1433  1434      1
  1509  1433  1443      1
  1510  1433  1444      1
  1511  1434  1435      1
  1512  1434  1445      1
  1513  1435  1446      1
  1514  1435  1447      1
  1515  1435  1451      1
  1516  1448  1449      1
  1517  1448  1453      1
  1518  1448  1455      1
  1519  1448  1456      1
  1520  1449  1450      1
  1521  1449  1457      1
  1522  1449  1458      1
  1523  1450  1451      1
  1524  1450  1452      1
  1525  1450  1459      1
  1526  1451  1460      1
  1527  1451  1461      1
  1528  1452  1453      1
  1529  1452  1462      1
  1530  1452  1463      1
  1531  1453  1454      1
  1532  1453  1464      1
  1533  1454  1465      1
  1534  1454  1466      1
  1535  1454  1470      1
  1536  1467  1468      1
  1537  1467  1472      1
  1538  1467  1474      1
  1539  1467  1475      1
  1540  1468  1469      1
  1541  1468  1476      1
  1542  1468  1477      1
  1543  1469  1470      1
  1544  1469  1471      1
  1545  1469  1478      1
  1546  1470  1479      1
  1547  1470  1480      1
  1548  1471  1472      1
  1549  1471  1481      1
  1550  1471  1482      1
  1551  1472  1473      1
  1552  1472  1483      1
  1553  1473  1484      1
  1554  1473  1485      1
  1555  1473  1489      1
  1556  1486  1487      1
  1557  1486  1491      1
  1558  1486  1493      1
  1559  1486  1494      1
  1560  1487  1488      1
  1561  1487  1495      1
  1562  1487  1496      1
  1563  1488  1489      1
  1564  1488  1490      1
  1565  1488  1497      1
  1566  1489  1498      1
  1567  1489  1499      1
  1568  1490  1491      1
  1569  1490  1500      1
  1570  1490  1501      1
  1571  1491  1492      1
  1572  1491  1502      1
  1573  1492  1503      1
  1574  1492  1504      1
  1575  1492  1508      1
  1576  1505  1506      1
  1577  1505  1510      1
  1578  1505  1512      1
  1579  1505  1513      1
  1580  1506  1507      1
  1581  1506  1514      1
  1582  1506  1515      1
  1583  1507  1508      1
  1584  1507  1509      1
  1585  1507  1516      1
  1586  1508  1517      1
  1587  1508  1518      1
  1588  1509  1510      1
  1589  1509  1519      1
  1590  1509  1520      1
  1591  1510  1511      1
  1592  1510  1521      1
  1593  1511  1522      1
  1594  1511  1523      1
  1595  1511  1524      H
