###
### Created by PolyChef-cpp17 on Wed Feb 26 21:14:12 2025
###

@<TRIPOS>MOLECULE
NO_INFO
909 951 1 0 0
SMALL
USER_CHARGES


@<TRIPOS>ATOM
      1 C          97.1378  157.4787   63.2471 C.3       0        0    0.0000
      2 C          98.0280  158.1956   62.2416 C.3       0        0    0.0000
      3 C          99.3884  157.5215   62.4480 C.3       0        0    0.0000
      4 C         100.5906  158.2779   61.8748 C.3       0        0    0.0000
      5 C          99.4596  157.2043   63.9545 C.3       0        0    0.0000
      6 C          98.0275  157.3940   64.4917 C.3       0        0    0.0000
      7 C          97.5805  156.3828   65.5518 C.3       0        0    0.0000
      8 H          96.2124  158.0302   63.4399 H         0        0    0.0000
      9 H          96.8699  156.4879   62.8638 H         0        0    0.0000
     10 H          97.6627  158.0793   61.2165 H         0        0    0.0000
     11 H          98.0592  159.2661   62.4723 H         0        0    0.0000
     12 H          99.3483  156.5550   61.9232 H         0        0    0.0000
     13 H         100.9487  158.9982   62.6198 H         0        0    0.0000
     14 H         101.4100  157.5702   61.7016 H         0        0    0.0000
     15 H         100.1445  157.8652   64.4968 H         0        0    0.0000
     16 H          99.8362  156.1856   64.0967 H         0        0    0.0000
     17 H          97.9988  158.3836   64.9722 H         0        0    0.0000
     18 H          96.7270  156.7954   66.1028 H         0        0    0.0000
     19 H          97.2237  155.4742   65.0525 H         0        0    0.0000
     20 C         100.0068  158.5676   68.8948 C.3       1        0    0.0000
     21 C          98.9620  158.2261   67.8297 C.3       1        0    0.0000
     22 C          99.6039  157.1774   66.9037 C.3       1        0    0.0000
     23 C          98.6918  155.9902   66.5711 C.3       1        0    0.0000
     24 C         100.8772  156.7469   67.6391 C.3       1        0    0.0000
     25 C         101.3374  158.0053   68.3827 C.3       1        0    0.0000
     26 C         102.0961  158.9845   67.4669 C.3       1        0    0.0000
     27 H         100.0341  159.6402   69.1095 H         1        0    0.0000
     28 H          99.7375  158.0594   69.8296 H         1        0    0.0000
     29 H          98.0436  157.8670   68.3072 H         1        0    0.0000
     30 H          98.6987  159.1204   67.2529 H         1        0    0.0000
     31 H          99.9012  157.6771   65.9706 H         1        0    0.0000
     32 H          99.2920  155.1815   66.1373 H         1        0    0.0000
     33 H          98.2341  155.5915   67.4838 H         1        0    0.0000
     34 H         101.6357  156.3575   66.9523 H         1        0    0.0000
     35 H         100.6499  155.9555   68.3652 H         1        0    0.0000
     36 H         101.9804  157.7204   69.2252 H         1        0    0.0000
     37 H         101.8811  160.0247   67.7353 H         1        0    0.0000
     38 H         101.7624  158.8471   66.4315 H         1        0    0.0000
     39 C         103.6334  158.7474   67.5156 C.3       2        0    0.0000
     40 C         104.1434  157.7450   66.4704 C.3       2        0    0.0000
     41 H         104.1098  159.7164   67.3188 H         2        0    0.0000
     42 H         103.9299  158.4526   68.5290 H         2        0    0.0000
     43 H         103.6740  157.9131   65.4940 H         2        0    0.0000
     44 H         105.2195  157.9130   66.3342 H         2        0    0.0000
     45 C         104.2133  156.9238   70.5292 C.3       3        0    0.0000
     46 C         104.7623  157.2357   69.1348 C.3       3        0    0.0000
     47 C         104.5461  155.9716   68.2837 C.3       3        0    0.0000
     48 C         103.9691  156.2440   66.8890 C.3       3        0    0.0000
     49 C         103.6249  155.0913   69.1344 C.3       3        0    0.0000
     50 C         104.0206  155.4043   70.5815 C.3       3        0    0.0000
     51 C         105.2888  154.6479   71.0204 C.3       3        0    0.0000
     52 H         104.8621  157.3141   71.3190 H         3        0    0.0000
     53 H         103.2380  157.4142   70.6426 H         3        0    0.0000
     54 H         104.2594  158.1175   68.7226 H         3        0    0.0000
     55 H         105.8321  157.4690   69.1894 H         3        0    0.0000
     56 H         105.5115  155.4558   68.1808 H         3        0    0.0000
     57 H         104.4851  155.6154   66.1535 H         3        0    0.0000
     58 H         102.9085  155.9696   66.8531 H         3        0    0.0000
     59 H         103.7272  154.0300   68.8856 H         3        0    0.0000
     60 H         102.5753  155.3697   68.9739 H         3        0    0.0000
     61 H         103.1916  155.1480   71.2533 H         3        0    0.0000
     62 H         105.6715  155.0354   71.9711 H         3        0    0.0000
     63 H         106.0784  154.7976   70.2744 H         3        0    0.0000
     64 C         105.0323  153.1188   71.1536 C.3       4        0    0.0000
     65 C         106.2099  152.3387   71.7554 C.3       4        0    0.0000
     66 H         104.1686  152.9993   71.8203 H         4        0    0.0000
     67 H         104.7368  152.7076   70.1812 H         4        0    0.0000
     68 H         106.9126  152.0152   70.9786 H         4        0    0.0000
     69 H         106.7642  153.0162   72.4175 H         4        0    0.0000
     70 C         107.5469  151.8858   75.2806 C.3       5        0    0.0000
     71 C         107.9619  151.5399   73.8481 C.3       5        0    0.0000
     72 C         106.9794  150.4722   73.3543 C.3       5        0    0.0000
     73 C         105.7801  151.1070   72.6253 C.3       5        0    0.0000
     74 C         106.6187  149.7420   74.6542 C.3       5        0    0.0000
     75 C         106.4782  150.8592   75.6912 C.3       5        0    0.0000
     76 C         106.6133  150.3417   77.1277 C.3       5        0    0.0000
     77 H         108.4248  151.8610   75.9363 H         5        0    0.0000
     78 H         107.1350  152.9003   75.3283 H         5        0    0.0000
     79 H         108.9752  151.1191   73.8654 H         5        0    0.0000
     80 H         107.9945  152.4264   73.2065 H         5        0    0.0000
     81 H         107.4907  149.7856   72.6674 H         5        0    0.0000
     82 H         105.0475  151.4485   73.3667 H         5        0    0.0000
     83 H         105.2665  150.3748   71.9932 H         5        0    0.0000
     84 H         107.4389  149.0668   74.9312 H         5        0    0.0000
     85 H         105.7091  149.1385   74.5795 H         5        0    0.0000
     86 H         105.4888  151.3223   75.5699 H         5        0    0.0000
     87 H         105.6243  150.1384   77.5544 H         5        0    0.0000
     88 H         107.0758  151.1158   77.7515 H         5        0    0.0000
     89 C         110.6340  149.8498   79.1185 C.3       6        0    0.0000
     90 C         109.2414  150.2379   78.6148 C.3       6        0    0.0000
     91 C         108.9732  149.3695   77.3786 C.3       6        0    0.0000
     92 C         107.4853  149.0554   77.1996 C.3       6        0    0.0000
     93 C         109.8608  148.1430   77.6154 C.3       6        0    0.0000
     94 C         111.1493  148.7632   78.1658 C.3       6        0    0.0000
     95 C         112.0862  147.7735   78.8639 C.3       6        0    0.0000
     96 H         111.3092  150.7122   79.1326 H         6        0    0.0000
     97 H         110.5596  149.4787   80.1478 H         6        0    0.0000
     98 H         109.1885  151.3031   78.3654 H         6        0    0.0000
     99 H         108.5029  150.0518   79.4038 H         6        0    0.0000
    100 H         109.3464  149.9071   76.4947 H         6        0    0.0000
    101 H         107.1398  148.4466   78.0438 H         6        0    0.0000
    102 H         107.3291  148.4575   76.2941 H         6        0    0.0000
    103 H         110.0386  147.5825   76.6921 H         6        0    0.0000
    104 H         109.4066  147.4651   78.3488 H         6        0    0.0000
    105 H         111.6820  149.2564   77.3396 H         6        0    0.0000
    106 H         112.8593  148.3122   79.4242 H         6        0    0.0000
    107 H         112.6050  147.1716   78.1083 H         6        0    0.0000
    108 C         111.3262  146.8156   79.8220 C.3       7        0    0.0000
    109 C         112.2301  146.1035   80.8385 C.3       7        0    0.0000
    110 H         110.6061  147.4295   80.3781 H         7        0    0.0000
    111 H         110.7399  146.0970   79.2374 H         7        0    0.0000
    112 H         112.1162  146.5308   81.8416 H         7        0    0.0000
    113 H         111.9084  145.0563   80.9051 H         7        0    0.0000
    114 C         113.7467  146.0867   80.4405 C.3       8        0    0.0000
    115 C         114.6803  145.6060   81.5606 C.3       8        0    0.0000
    116 H         114.0198  147.1196   80.1893 H         8        0    0.0000
    117 H         113.8824  145.4957   79.5271 H         8        0    0.0000
    118 H         114.4716  144.5446   81.7458 H         8        0    0.0000
    119 H         115.7322  145.6705   81.2583 H         8        0    0.0000
    120 C         114.4759  146.3522   82.9245 C.3       9        0    0.0000
    121 C         115.3174  145.7865   84.0774 C.3       9        0    0.0000
    122 H         114.7769  147.3953   82.7631 H         9        0    0.0000
    123 H         113.4099  146.3696   83.1799 H         9        0    0.0000
    124 H         116.3633  146.1066   84.0023 H         9        0    0.0000
    125 H         114.9294  146.2002   85.0170 H         9        0    0.0000
    126 C         115.2508  144.2254   84.2085 C.3      10        0    0.0000
    127 C         116.0300  143.6662   85.4075 C.3      10        0    0.0000
    128 H         115.6919  143.8114   83.2927 H        10        0    0.0000
    129 H         114.2038  143.9006   84.2267 H        10        0    0.0000
    130 H         116.7330  142.9106   85.0341 H        10        0    0.0000
    131 H         116.6333  144.4447   85.8892 H        10        0    0.0000
    132 C         117.7901  142.1378   89.0653 C.3      11        0    0.0000
    133 C         116.8934  143.1492   88.3650 C.3      11        0    0.0000
    134 C         115.9113  142.2599   87.5954 C.3      11        0    0.0000
    135 C         115.1298  142.9574   86.4778 C.3      11        0    0.0000
    136 C         116.7315  141.0284   87.1639 C.3      11        0    0.0000
    137 C         118.0405  141.0906   87.9752 C.3      11        0    0.0000
    138 C         118.5764  139.7431   88.4685 C.3      11        0    0.0000
    139 H         118.7201  142.5927   89.4200 H        11        0    0.0000
    140 H         117.2665  141.7154   89.9300 H        11        0    0.0000
    141 H         116.3830  143.8050   89.0771 H        11        0    0.0000
    142 H         117.4939  143.7752   87.6959 H        11        0    0.0000
    143 H         115.1660  141.9040   88.3227 H        11        0    0.0000
    144 H         114.4945  142.2208   85.9717 H        11        0    0.0000
    145 H         114.4575  143.7015   86.9211 H        11        0    0.0000
    146 H         116.9640  141.0255   86.0936 H        11        0    0.0000
    147 H         116.1539  140.1180   87.3569 H        11        0    0.0000
    148 H         118.8082  141.5056   87.3047 H        11        0    0.0000
    149 H         119.6171  139.6306   88.1422 H        11        0    0.0000
    150 H         118.5882  139.7419   89.5649 H        11        0    0.0000
    151 C         117.0206  136.9843   91.3444 C.3      12        0    0.0000
    152 C         117.8278  137.9333   90.4547 C.3      12        0    0.0000
    153 C         117.6988  137.3958   89.0233 C.3      12        0    0.0000
    154 C         117.7609  138.5103   87.9753 C.3      12        0    0.0000
    155 C         116.3747  136.6255   89.0586 C.3      12        0    0.0000
    156 C         116.4377  135.9128   90.4136 C.3      12        0    0.0000
    157 C         115.0945  135.3749   90.9147 C.3      12        0    0.0000
    158 H         117.6482  136.5318   92.1197 H        12        0    0.0000
    159 H         116.2292  137.5466   91.8543 H        12        0    0.0000
    160 H         118.8773  137.9770   90.7647 H        12        0    0.0000
    161 H         117.4213  138.9482   90.5403 H        12        0    0.0000
    162 H         118.5163  136.6805   88.8511 H        12        0    0.0000
    163 H         116.7425  138.8391   87.7357 H        12        0    0.0000
    164 H         118.1983  138.1325   87.0438 H        12        0    0.0000
    165 H         116.2911  135.9177   88.2278 H        12        0    0.0000
    166 H         115.5197  137.3117   89.0150 H        12        0    0.0000
    167 H         117.1627  135.0889   90.3432 H        12        0    0.0000
    168 H         114.6628  134.6856   90.1796 H        12        0    0.0000
    169 H         114.3881  136.2070   91.0205 H        12        0    0.0000
    170 C         115.2201  134.6562   92.2860 C.3      13        0    0.0000
    171 C         114.5487  135.4047   93.4464 C.3      13        0    0.0000
    172 H         114.7273  133.6814   92.1792 H        13        0    0.0000
    173 H         116.2756  134.4520   92.5007 H        13        0    0.0000
    174 H         114.2334  136.4100   93.1434 H        13        0    0.0000
    175 H         113.6367  134.8593   93.7209 H        13        0    0.0000
    176 C         115.5260  132.2807   96.5109 C.3      14        0    0.0000
    177 C         115.1414  133.0043   95.2214 C.3      14        0    0.0000
    178 C         116.1335  134.1686   95.0564 C.3      14        0    0.0000
    179 C         115.4291  135.4947   94.7408 C.3      14        0    0.0000
    180 C         116.9398  134.1837   96.3642 C.3      14        0    0.0000
    181 C         116.9552  132.7237   96.8346 C.3      14        0    0.0000
    182 C         118.0000  131.8434   96.1247 C.3      14        0    0.0000
    183 H         114.8553  132.6086   97.3154 H        14        0    0.0000
    184 H         115.4173  131.1952   96.4219 H        14        0    0.0000
    185 H         114.0983  133.3359   95.2660 H        14        0    0.0000
    186 H         115.2269  132.3244   94.3655 H        14        0    0.0000
    187 H         116.8124  133.9182   94.2290 H        14        0    0.0000
    188 H         116.1647  136.3001   94.6315 H        14        0    0.0000
    189 H         114.7814  135.7697   95.5818 H        14        0    0.0000
    190 H         117.9419  134.6005   96.2237 H        14        0    0.0000
    191 H         116.4310  134.7984   97.1182 H        14        0    0.0000
    192 H         117.1199  132.6774   97.9186 H        14        0    0.0000
    193 H         118.2822  132.2657   95.1543 H        14        0    0.0000
    194 H         117.5637  130.8577   95.9224 H        14        0    0.0000
    195 C         119.2744  131.6361   96.9912 C.3      15        0    0.0000
    196 C         119.6473  130.1628   97.2097 C.3      15        0    0.0000
    197 H         120.1022  132.1213   96.4583 H        15        0    0.0000
    198 H         119.1628  132.1650   97.9450 H        15        0    0.0000
    199 H         119.3529  129.5455   96.3528 H        15        0    0.0000
    200 H         120.7403  130.0956   97.2839 H        15        0    0.0000
    201 C         117.2815  132.6115   99.4783 C.3      16        0    0.0000
    202 C         117.6248  131.6464   98.3446 C.3      16        0    0.0000
    203 C         117.7816  130.2550   98.9822 C.3      16        0    0.0000
    204 C         119.0653  129.5472   98.5292 C.3      16        0    0.0000
    205 C         117.7068  130.5078  100.4959 C.3      16        0    0.0000
    206 C         116.8076  131.7415  100.6455 C.3      16        0    0.0000
    207 C         115.3008  131.4384  100.5561 C.3      16        0    0.0000
    208 H         118.1914  133.1490   99.7746 H        16        0    0.0000
    209 H         116.5477  133.3632   99.1709 H        16        0    0.0000
    210 H         118.5270  131.9792   97.8198 H        16        0    0.0000
    211 H         116.8135  131.6238   97.6075 H        16        0    0.0000
    212 H         116.9145  129.6485   98.6850 H        16        0    0.0000
    213 H         118.8797  128.4763   98.3863 H        16        0    0.0000
    214 H         119.8240  129.6347   99.3162 H        16        0    0.0000
    215 H         117.3327  129.6349  101.0397 H        16        0    0.0000
    216 H         118.7037  130.7399  100.8930 H        16        0    0.0000
    217 H         117.0184  132.2502  101.5949 H        16        0    0.0000
    218 H         115.0447  130.9760   99.5969 H        16        0    0.0000
    219 H         114.7396  132.3792  100.6101 H        16        0    0.0000
    220 C         116.8299  128.2003  103.9055 C.3      17        0    0.0000
    221 C         115.5572  129.0025  103.6220 C.3      17        0    0.0000
    222 C         115.9613  130.1244  102.6564 C.3      17        0    0.0000
    223 C         114.8192  130.5243  101.7182 C.3      17        0    0.0000
    224 C         117.1949  129.5499  101.9520 C.3      17        0    0.0000
    225 C         117.9501  128.8709  103.0994 C.3      17        0    0.0000
    226 C         119.0240  127.8742  102.6548 C.3      17        0    0.0000
    227 H         117.0672  128.1908  104.9748 H        17        0    0.0000
    228 H         116.6814  127.1588  103.5964 H        17        0    0.0000
    229 H         115.1290  129.4124  104.5431 H        17        0    0.0000
    230 H         114.8017  128.3435  103.1778 H        17        0    0.0000
    231 H         116.2715  130.9947  103.2530 H        17        0    0.0000
    232 H         114.0526  131.0614  102.2896 H        17        0    0.0000
    233 H         114.3369  129.6312  101.3041 H        17        0    0.0000
    234 H         117.7940  130.3316  101.4741 H        17        0    0.0000
    235 H         116.9054  128.8199  101.1858 H        17        0    0.0000
    236 H         118.4060  129.6494  103.7284 H        17        0    0.0000
    237 H         119.6491  128.3141  101.8689 H        17        0    0.0000
    238 H         118.5406  126.9923  102.2176 H        17        0    0.0000
    239 C         119.9477  127.4141  107.5438 C.3      18        0    0.0000
    240 C         119.5129  126.6804  106.2728 C.3      18        0    0.0000
    241 C         119.3050  127.7570  105.1925 C.3      18        0    0.0000
    242 C         119.9243  127.4109  103.8328 C.3      18        0    0.0000
    243 C         119.9051  129.0289  105.8002 C.3      18        0    0.0000
    244 C         119.6451  128.8974  107.3047 C.3      18        0    0.0000
    245 C         118.2063  129.2913  107.6889 C.3      18        0    0.0000
    246 H         119.4659  127.0034  108.4362 H        18        0    0.0000
    247 H         121.0297  127.2842  107.6740 H        18        0    0.0000
    248 H         120.2671  125.9366  105.9928 H        18        0    0.0000
    249 H         118.5745  126.1409  106.4458 H        18        0    0.0000
    250 H         118.2243  127.9157  105.0673 H        18        0    0.0000
    251 H         120.8988  127.9052  103.7413 H        18        0    0.0000
    252 H         120.1068  126.3327  103.7585 H        18        0    0.0000
    253 H         119.4664  129.9352  105.3705 H        18        0    0.0000
    254 H         120.9870  129.0657  105.6178 H        18        0    0.0000
    255 H         120.3556  129.5254  107.8572 H        18        0    0.0000
    256 H         117.5165  129.1361  106.8519 H        18        0    0.0000
    257 H         118.1746  130.3596  107.9339 H        18        0    0.0000
    258 C         114.3195  129.3128  110.2204 C.3      19        0    0.0000
    259 C         115.3691  129.5798  109.1387 C.3      19        0    0.0000
    260 C         116.7426  129.3293  109.7868 C.3      19        0    0.0000
    261 C         117.7006  128.4955  108.9270 C.3      19        0    0.0000
    262 C         116.4171  128.6517  111.1218 C.3      19        0    0.0000
    263 C         115.0800  129.2658  111.5501 C.3      19        0    0.0000
    264 C         115.2513  130.6524  112.1990 C.3      19        0    0.0000
    265 H         113.5142  130.0532  110.1981 H        19        0    0.0000
    266 H         113.8610  128.3333  110.0334 H        19        0    0.0000
    267 H         115.1845  128.9373  108.2706 H        19        0    0.0000
    268 H         115.3048  130.6180  108.7927 H        19        0    0.0000
    269 H         117.2051  130.3031  110.0021 H        19        0    0.0000
    270 H         118.5681  128.2022  109.5302 H        19        0    0.0000
    271 H         117.2138  127.5697  108.5994 H        19        0    0.0000
    272 H         117.2101  128.8013  111.8617 H        19        0    0.0000
    273 H         116.2946  127.5700  110.9813 H        19        0    0.0000
    274 H         114.5749  128.5928  112.2546 H        19        0    0.0000
    275 H         115.1612  131.4514  111.4547 H        19        0    0.0000
    276 H         116.2563  130.7307  112.6303 H        19        0    0.0000
    277 C         114.2163  130.8895  113.3367 C.3      20        0    0.0000
    278 C         113.5076  132.2495  113.2619 C.3      20        0    0.0000
    279 H         113.4559  130.1038  113.2421 H        20        0    0.0000
    280 H         114.6980  130.7438  114.3107 H        20        0    0.0000
    281 H         112.6954  132.2362  112.5257 H        20        0    0.0000
    282 H         113.0439  132.4459  114.2371 H        20        0    0.0000
    283 C         115.2197  136.2790  115.1859 C.3      21        0    0.0000
    284 C         114.2656  135.1237  114.8865 C.3      21        0    0.0000
    285 C         115.1102  134.0092  114.2449 C.3      21        0    0.0000
    286 C         114.4683  133.4532  112.9670 C.3      21        0    0.0000
    287 C         116.4928  134.6430  114.0264 C.3      21        0    0.0000
    288 C         116.6299  135.6848  115.1439 C.3      21        0    0.0000
    289 C         117.0425  135.0979  116.5061 C.3      21        0    0.0000
    290 H         115.1221  137.0338  114.3951 H        21        0    0.0000
    291 H         114.9840  136.7722  116.1342 H        21        0    0.0000
    292 H         113.4463  135.4620  114.2428 H        21        0    0.0000
    293 H         113.8143  134.7547  115.8150 H        21        0    0.0000
    294 H         115.2092  133.1967  114.9785 H        21        0    0.0000
    295 H         115.2425  133.1418  112.2562 H        21        0    0.0000
    296 H         113.8900  134.2462  112.4778 H        21        0    0.0000
    297 H         117.2926  133.8961  114.0347 H        21        0    0.0000
    298 H         116.5290  135.1523  113.0545 H        21        0    0.0000
    299 H         117.3492  136.4605  114.8517 H        21        0    0.0000
    300 H         116.5036  134.1681  116.7179 H        21        0    0.0000
    301 H         116.7721  135.8044  117.3003 H        21        0    0.0000
    302 C         119.7625  131.7900  114.9344 C.3      22        0    0.0000
    303 C         118.5630  132.6955  115.2099 C.3      22        0    0.0000
    304 C         119.1126  134.1261  115.3462 C.3      22        0    0.0000
    305 C         118.5738  134.8416  116.5919 C.3      22        0    0.0000
    306 C         120.6401  133.9613  115.3304 C.3      22        0    0.0000
    307 C         120.8931  132.7138  114.4744 C.3      22        0    0.0000
    308 C         120.8400  132.9687  112.9570 C.3      22        0    0.0000
    309 H         120.0569  131.2968  115.8697 H        22        0    0.0000
    310 H         119.5256  131.0010  114.2137 H        22        0    0.0000
    311 H         118.0267  132.3578  116.1035 H        22        0    0.0000
    312 H         117.8552  132.6517  114.3738 H        22        0    0.0000
    313 H         118.8116  134.6893  114.4516 H        22        0    0.0000
    314 H         119.0991  135.7919  116.7424 H        22        0    0.0000
    315 H         118.7729  134.2262  117.4775 H        22        0    0.0000
    316 H         121.1452  134.8540  114.9488 H        22        0    0.0000
    317 H         121.0143  133.7812  116.3466 H        22        0    0.0000
    318 H         121.8624  132.2684  114.7324 H        22        0    0.0000
    319 H         121.6330  132.4232  112.4343 H        22        0    0.0000
    320 H         121.0131  134.0344  112.7638 H        22        0    0.0000
    321 C         120.4179  129.8794  109.9999 C.3      23        0    0.0000
    322 C         120.8638  131.1463  110.7342 C.3      23        0    0.0000
    323 C         119.6021  132.0040  110.9380 C.3      23        0    0.0000
    324 C         119.4603  132.5882  112.3489 C.3      23        0    0.0000
    325 C         118.4429  131.0708  110.5738 C.3      23        0    0.0000
    326 C         119.0074  130.1657  109.4735 C.3      23        0    0.0000
    327 C         119.0035  130.8478  108.0922 C.3      23        0    0.0000
    328 H         121.1292  129.5883  109.2212 H        23        0    0.0000
    329 H         120.3722  129.0518  110.7194 H        23        0    0.0000
    330 H         121.3543  130.8801  111.6769 H        23        0    0.0000
    331 H         121.5957  131.6981  110.1328 H        23        0    0.0000
    332 H         119.6215  132.8252  110.2073 H        23        0    0.0000
    333 H         118.8376  133.4898  112.3078 H        23        0    0.0000
    334 H         118.9477  131.8778  113.0078 H        23        0    0.0000
    335 H         117.5547  131.6255  110.2541 H        23        0    0.0000
    336 H         118.1580  130.4595  111.4399 H        23        0    0.0000
    337 H         118.4231  129.2381  109.4243 H        23        0    0.0000
    338 H         118.1378  131.5098  107.9801 H        23        0    0.0000
    339 H         118.9240  130.0841  107.3094 H        23        0    0.0000
    340 C         120.5666  130.9349  104.1238 C.3      24        0    0.0000
    341 C         119.7406  131.3299  105.3400 C.3      24        0    0.0000
    342 C         120.8092  131.6216  106.3986 C.3      24        0    0.0000
    343 C         120.3080  131.6599  107.8455 C.3      24        0    0.0000
    344 C         121.9453  130.6194  106.1153 C.3      24        0    0.0000
    345 C         121.6462  130.0282  104.7237 C.3      24        0    0.0000
    346 C         122.8685  129.7836  103.8336 C.3      24        0    0.0000
    347 H         119.9645  130.4153  103.3719 H        24        0    0.0000
    348 H         120.9925  131.8308  103.6589 H        24        0    0.0000
    349 H         119.1105  132.2021  105.1404 H        24        0    0.0000
    350 H         119.0888  130.4986  105.6304 H        24        0    0.0000
    351 H         121.2096  132.6231  106.1800 H        24        0    0.0000
    352 H         121.0932  131.2746  108.5067 H        24        0    0.0000
    353 H         120.1342  132.7025  108.1371 H        24        0    0.0000
    354 H         121.9943  129.8116  106.8534 H        24        0    0.0000
    355 H         122.9096  131.1371  106.1597 H        24        0    0.0000
    356 H         121.1803  129.0454  104.8915 H        24        0    0.0000
    357 H         122.5350  129.3788  102.8707 H        24        0    0.0000
    358 H         123.3546  130.7430  103.6206 H        24        0    0.0000
    359 C         124.1980  127.5987  108.0076 C.3      25        0    0.0000
    360 C         124.6841  127.6419  106.5670 C.3      25        0    0.0000
    361 C         123.5172  128.3038  105.8313 C.3      25        0    0.0000
    362 C         123.9229  128.8134  104.4461 C.3      25        0    0.0000
    363 C         123.0429  129.3971  106.8061 C.3      25        0    0.0000
    364 C         123.5355  128.9683  108.2036 C.3      25        0    0.0000
    365 C         122.4860  129.0347  109.3204 C.3      25        0    0.0000
    366 H         125.0204  127.4380  108.7117 H        25        0    0.0000
    367 H         123.4868  126.7746  108.1295 H        25        0    0.0000
    368 H         125.5948  128.2484  106.4916 H        25        0    0.0000
    369 H         124.9046  126.6427  106.1790 H        25        0    0.0000
    370 H         122.7108  127.5632  105.7278 H        25        0    0.0000
    371 H         124.8932  129.3213  104.4992 H        25        0    0.0000
    372 H         124.0511  127.9602  103.7694 H        25        0    0.0000
    373 H         123.4832  130.3703  106.5556 H        25        0    0.0000
    374 H         121.9558  129.5180  106.7522 H        25        0    0.0000
    375 H         124.3321  129.6730  108.4852 H        25        0    0.0000
    376 H         121.5581  129.4557  108.9155 H        25        0    0.0000
    377 H         122.8340  129.7286  110.0948 H        25        0    0.0000
    378 C         118.6417  126.9783  110.9149 C.3      26        0    0.0000
    379 C         119.6173  127.9491  110.2450 C.3      26        0    0.0000
    380 C         120.9753  127.7610  110.9448 C.3      26        0    0.0000
    381 C         122.1684  127.6647  109.9859 C.3      26        0    0.0000
    382 C         120.7992  126.4927  111.7860 C.3      26        0    0.0000
    383 C         119.3249  126.5087  112.2038 C.3      26        0    0.0000
    384 C         119.0638  127.4413  113.4018 C.3      26        0    0.0000
    385 H         117.6600  127.4339  111.0761 H        26        0    0.0000
    386 H         118.4911  126.1160  110.2528 H        26        0    0.0000
    387 H         119.6624  127.7518  109.1683 H        26        0    0.0000
    388 H         119.2739  128.9825  110.3709 H        26        0    0.0000
    389 H         121.1302  128.6064  111.6303 H        26        0    0.0000
    390 H         123.0544  127.3337  110.5407 H        26        0    0.0000
    391 H         121.9783  126.9117  109.2124 H        26        0    0.0000
    392 H         121.4831  126.4691  112.6406 H        26        0    0.0000
    393 H         120.9974  125.6004  111.1780 H        26        0    0.0000
    394 H         119.0031  125.4904  112.4568 H        26        0    0.0000
    395 H         119.9694  127.9919  113.6794 H        26        0    0.0000
    396 H         118.7757  126.8419  114.2736 H        26        0    0.0000
    397 C         117.9168  128.4513  113.1083 C.3      27        0    0.0000
    398 C         117.1169  128.8655  114.3517 C.3      27        0    0.0000
    399 H         118.3863  129.3510  112.6902 H        27        0    0.0000
    400 H         117.2607  128.0486  112.3278 H        27        0    0.0000
    401 H         117.7404  129.4246  115.0592 H        27        0    0.0000
    402 H         116.3181  129.5465  114.0313 H        27        0    0.0000
    403 C         117.0954  126.2551  118.5398 C.3      28        0    0.0000
    404 C         116.4597  127.3186  117.6576 C.3      28        0    0.0000
    405 C         117.1858  127.1529  116.3166 C.3      28        0    0.0000
    406 C         116.4226  127.6692  115.0902 C.3      28        0    0.0000
    407 C         117.6145  125.6724  116.2545 C.3      28        0    0.0000
    408 C         117.2030  125.0511  117.6018 C.3      28        0    0.0000
    409 C         118.1647  123.9870  118.1364 C.3      28        0    0.0000
    410 H         118.0860  126.5838  118.8771 H        28        0    0.0000
    411 H         116.4871  126.0384  119.4233 H        28        0    0.0000
    412 H         115.3845  127.1280  117.5716 H        28        0    0.0000
    413 H         116.5894  128.3236  118.0714 H        28        0    0.0000
    414 H         118.1111  127.7451  116.3771 H        28        0    0.0000
    415 H         116.2936  126.8449  114.3786 H        28        0    0.0000
    416 H         115.4167  127.9783  115.3983 H        28        0    0.0000
    417 H         118.7008  125.6212  116.1092 H        28        0    0.0000
    418 H         117.1575  125.1274  115.4218 H        28        0    0.0000
    419 H         116.2004  124.6141  117.4861 H        28        0    0.0000
    420 H         118.1126  123.9457  119.2309 H        28        0    0.0000
    421 H         117.8548  123.0013  117.7693 H        28        0    0.0000
    422 C         122.1814  126.8632  118.7460 C.3      29        0    0.0000
    423 C         121.4967  126.0421  117.6624 C.3      29        0    0.0000
    424 C         120.3009  125.4314  118.4006 C.3      29        0    0.0000
    425 C         119.6358  124.2410  117.7030 C.3      29        0    0.0000
    426 C         120.8012  125.1669  119.8342 C.3      29        0    0.0000
    427 C         122.1327  125.9324  119.9621 C.3      29        0    0.0000
    428 C         122.3801  126.6055  121.3156 C.3      29        0    0.0000
    429 H         123.2072  127.1279  118.4716 H        29        0    0.0000
    430 H         121.6241  127.7912  118.9148 H        29        0    0.0000
    431 H         121.1847  126.6616  116.8158 H        29        0    0.0000
    432 H         122.1848  125.2762  117.2881 H        29        0    0.0000
    433 H         119.5353  126.2186  118.4734 H        29        0    0.0000
    434 H         119.6608  124.4017  116.6187 H        29        0    0.0000
    435 H         120.2225  123.3361  117.9009 H        29        0    0.0000
    436 H         120.9692  124.1037  120.0370 H        29        0    0.0000
    437 H         120.0462  125.5029  120.5531 H        29        0    0.0000
    438 H         122.9365  125.1924  119.8297 H        29        0    0.0000
    439 H         123.0357  125.9664  121.9188 H        29        0    0.0000
    440 H         122.9189  127.5467  121.1547 H        29        0    0.0000
    441 C         121.5859  127.6564  125.7919 C.3      30        0    0.0000
    442 C         120.8596  126.9485  124.6583 C.3      30        0    0.0000
    443 C         121.3655  127.6837  123.4154 C.3      30        0    0.0000
    444 C         121.0847  126.9031  122.1290 C.3      30        0    0.0000
    445 C         122.8575  127.9206  123.7123 C.3      30        0    0.0000
    446 C         123.0069  127.8437  125.2457 C.3      30        0    0.0000
    447 C         123.8105  128.9823  125.8866 C.3      30        0    0.0000
    448 H         121.5768  127.0668  126.7141 H        30        0    0.0000
    449 H         121.0942  128.6126  126.0010 H        30        0    0.0000
    450 H         121.1389  125.8881  124.6321 H        30        0    0.0000
    451 H         119.7725  127.0141  124.7642 H        30        0    0.0000
    452 H         120.8657  128.6621  123.3670 H        30        0    0.0000
    453 H         120.5798  125.9582  122.3625 H        30        0    0.0000
    454 H         120.3976  127.4795  121.4982 H        30        0    0.0000
    455 H         123.4817  127.1436  123.2535 H        30        0    0.0000
    456 H         123.1871  128.8784  123.2961 H        30        0    0.0000
    457 H         123.5586  126.9163  125.4608 H        30        0    0.0000
    458 H         123.4500  129.1435  126.9095 H        30        0    0.0000
    459 H         123.6153  129.9097  125.3351 H        30        0    0.0000
    460 C         125.8776  130.4590  129.2614 C.3      31        0    0.0000
    461 C         125.5179  130.5386  127.7857 C.3      31        0    0.0000
    462 C         126.0277  129.2070  127.2200 C.3      31        0    0.0000
    463 C         125.3469  128.7410  125.9269 C.3      31        0    0.0000
    464 C         125.9740  128.2074  128.3937 C.3      31        0    0.0000
    465 C         125.5215  129.0157  129.6236 C.3      31        0    0.0000
    466 C         126.1569  128.5789  130.9459 C.3      31        0    0.0000
    467 H         126.9486  130.6497  129.4020 H        31        0    0.0000
    468 H         125.3188  131.1856  129.8590 H        31        0    0.0000
    469 H         124.4330  130.6447  127.6786 H        31        0    0.0000
    470 H         125.9881  131.3974  127.2963 H        31        0    0.0000
    471 H         127.0914  129.3477  126.9764 H        31        0    0.0000
    472 H         125.8058  129.2593  125.0765 H        31        0    0.0000
    473 H         125.5417  127.6713  125.7849 H        31        0    0.0000
    474 H         126.9734  127.7808  128.5450 H        31        0    0.0000
    475 H         125.2952  127.3676  128.2119 H        31        0    0.0000
    476 H         124.4270  128.9400  129.7001 H        31        0    0.0000
    477 H         127.2492  128.6501  130.8824 H        31        0    0.0000
    478 H         125.8428  129.2638  131.7424 H        31        0    0.0000
    479 C         125.7607  127.1305  131.3481 C.3      32        0    0.0000
    480 C         126.0448  126.7915  132.8184 C.3      32        0    0.0000
    481 H         124.6798  127.0396  131.1805 H        32        0    0.0000
    482 H         126.2438  126.4144  130.6731 H        32        0    0.0000
    483 H         127.0483  126.3680  132.9434 H        32        0    0.0000
    484 H         126.0249  127.7263  133.3933 H        32        0    0.0000
    485 C         123.4542  127.5791  136.3149 C.3      33        0    0.0000
    486 C         124.2747  127.7250  135.0343 C.3      33        0    0.0000
    487 C         123.8086  126.6098  134.0824 C.3      33        0    0.0000
    488 C         124.9839  125.8375  133.4688 C.3      33        0    0.0000
    489 C         122.8635  125.7430  134.9286 C.3      33        0    0.0000
    490 C         122.2484  126.7103  135.9480 C.3      33        0    0.0000
    491 C         121.0849  127.5534  135.3949 C.3      33        0    0.0000
    492 H         124.0599  127.0573  137.0668 H        33        0    0.0000
    493 H         123.1776  128.5494  136.7392 H        33        0    0.0000
    494 H         125.3457  127.6738  135.2589 H        33        0    0.0000
    495 H         124.0886  128.7026  134.5743 H        33        0    0.0000
    496 H         123.2269  127.0771  133.2751 H        33        0    0.0000
    497 H         124.6213  125.1238  132.7200 H        33        0    0.0000
    498 H         125.4795  125.2507  134.2515 H        33        0    0.0000
    499 H         122.1150  125.2324  134.3149 H        33        0    0.0000
    500 H         123.4316  124.9711  135.4639 H        33        0    0.0000
    501 H         121.9066  126.1595  136.8336 H        33        0    0.0000
    502 H         121.4120  128.1835  134.5609 H        33        0    0.0000
    503 H         120.7268  128.2321  136.1785 H        33        0    0.0000
    504 C         120.7585  123.0055  135.1569 C.3      34        0    0.0000
    505 C         120.7811  124.4215  135.7120 C.3      34        0    0.0000
    506 C         120.3227  125.2642  134.5200 C.3      34        0    0.0000
    507 C         119.8884  126.6704  134.9404 C.3      34        0    0.0000
    508 C         119.2132  124.4133  133.8753 C.3      34        0    0.0000
    509 C         119.4629  122.9627  134.3367 C.3      34        0    0.0000
    510 C         119.4243  121.9035  133.2278 C.3      34        0    0.0000
    511 H         120.7632  122.2545  135.9531 H        34        0    0.0000
    512 H         121.6460  122.8413  134.5363 H        34        0    0.0000
    513 H         120.0820  124.5111  136.5524 H        34        0    0.0000
    514 H         121.7772  124.7080  136.0628 H        34        0    0.0000
    515 H         121.1576  125.3359  133.8077 H        34        0    0.0000
    516 H         119.3658  127.1676  134.1146 H        34        0    0.0000
    517 H         119.1717  126.5963  135.7670 H        34        0    0.0000
    518 H         118.2203  124.7307  134.2175 H        34        0    0.0000
    519 H         119.2237  124.5255  132.7860 H        34        0    0.0000
    520 H         118.6497  122.7109  135.0336 H        34        0    0.0000
    521 H         118.3804  121.7085  132.9549 H        34        0    0.0000
    522 H         119.8272  120.9623  133.6207 H        34        0    0.0000
    523 C         120.8150  119.8792  129.1039 C.3      35        0    0.0000
    524 C         119.9017  120.4865  130.1719 C.3      35        0    0.0000
    525 C         120.8264  121.0664  131.2502 C.3      35        0    0.0000
    526 C         120.2165  122.2870  131.9450 C.3      35        0    0.0000
    527 C         122.1218  121.3497  130.4824 C.3      35        0    0.0000
    528 C         122.2535  120.1174  129.5813 C.3      35        0    0.0000
    529 C         123.2339  120.2806  128.4164 C.3      35        0    0.0000
    530 H         120.6178  118.8102  128.9693 H        35        0    0.0000
    531 H         120.6257  120.3682  128.1407 H        35        0    0.0000
    532 H         119.2269  119.7350  130.5959 H        35        0    0.0000
    533 H         119.2768  121.2650  129.7181 H        35        0    0.0000
    534 H         121.0235  120.2789  131.9922 H        35        0    0.0000
    535 H         119.5342  122.7944  131.2524 H        35        0    0.0000
    536 H         121.0002  123.0092  132.2023 H        35        0    0.0000
    537 H         122.9795  121.4591  131.1537 H        35        0    0.0000
    538 H         122.0321  122.2656  129.8849 H        35        0    0.0000
    539 H         122.5552  119.2604  130.2010 H        35        0    0.0000
    540 H         122.7697  120.8553  127.6064 H        35        0    0.0000
    541 H         123.4752  119.2930  128.0053 H        35        0    0.0000
    542 C         124.4683  121.8773  132.5392 C.3      36        0    0.0000
    543 C         123.7565  121.6845  131.2074 C.3      36        0    0.0000
    544 C         124.8074  120.9599  130.3600 C.3      36        0    0.0000
    545 C         124.5559  120.9720  128.8491 C.3      36        0    0.0000
    546 C         126.1625  121.5379  130.8127 C.3      36        0    0.0000
    547 C         125.8754  122.3105  132.1150 C.3      36        0    0.0000
    548 C         126.9519  122.2006  133.1991 C.3      36        0    0.0000
    549 H         123.9756  122.6314  133.1606 H        36        0    0.0000
    550 H         124.4776  120.9325  133.0939 H        36        0    0.0000
    551 H         122.8392  121.0975  131.3154 H        36        0    0.0000
    552 H         123.4886  122.6599  130.7865 H        36        0    0.0000
    553 H         124.7948  119.9042  130.6704 H        36        0    0.0000
    554 H         124.5422  122.0102  128.4967 H        36        0    0.0000
    555 H         125.3937  120.4784  128.3424 H        36        0    0.0000
    556 H         126.6040  122.2162  130.0745 H        36        0    0.0000
    557 H         126.8805  120.7224  130.9510 H        36        0    0.0000
    558 H         125.8130  123.3752  131.8435 H        36        0    0.0000
    559 H         127.0755  123.1775  133.6813 H        36        0    0.0000
    560 H         126.6088  121.5070  133.9759 H        36        0    0.0000
    561 C         129.4178  122.3593  129.1841 C.3      37        0    0.0000
    562 C         128.3974  122.6743  130.2806 C.3      37        0    0.0000
    563 C         128.3099  121.4232  131.1730 C.3      37        0    0.0000
    564 C         128.3396  121.7207  132.6772 C.3      37        0    0.0000
    565 C         129.4891  120.5527  130.7271 C.3      37        0    0.0000
    566 C         129.6387  120.8434  129.2299 C.3      37        0    0.0000
    567 C         128.6262  120.0580  128.3749 C.3      37        0    0.0000
    568 H         129.0928  122.7289  128.2069 H        37        0    0.0000
    569 H         130.3609  122.8676  129.4227 H        37        0    0.0000
    570 H         128.7043  123.5699  130.8321 H        37        0    0.0000
    571 H         127.4164  122.8860  129.8394 H        37        0    0.0000
    572 H         127.3802  120.8896  130.9286 H        37        0    0.0000
    573 H         128.6207  120.8115  133.2218 H        37        0    0.0000
    574 H         129.1021  122.4750  132.9034 H        37        0    0.0000
    575 H         129.3194  119.4922  130.9394 H        37        0    0.0000
    576 H         130.4055  120.8533  131.2514 H        37        0    0.0000
    577 H         130.6582  120.5967  128.9072 H        37        0    0.0000
    578 H         128.5925  120.4418  127.3492 H        37        0    0.0000
    579 H         127.6211  120.1827  128.7949 H        37        0    0.0000
    580 C         131.2895  116.3148  130.3337 C.3      38        0    0.0000
    581 C         129.8761  116.7090  129.9332 C.3      38        0    0.0000
    582 C         130.0526  118.1055  129.3235 C.3      38        0    0.0000
    583 C         128.9530  118.5367  128.3448 C.3      38        0    0.0000
    584 C         131.4887  118.1366  128.7611 C.3      38        0    0.0000
    585 C         132.1275  116.7893  129.1447 C.3      38        0    0.0000
    586 C         133.6190  116.8608  129.4817 C.3      38        0    0.0000
    587 H         131.5815  116.8326  131.2555 H        38        0    0.0000
    588 H         131.3822  115.2374  130.5017 H        38        0    0.0000
    589 H         129.4866  115.9874  129.2071 H        38        0    0.0000
    590 H         129.1966  116.7205  130.7912 H        38        0    0.0000
    591 H         130.0260  118.8249  130.1555 H        38        0    0.0000
    592 H         129.2553  118.2629  127.3269 H        38        0    0.0000
    593 H         128.0381  117.9732  128.5629 H        38        0    0.0000
    594 H         132.0311  118.9761  129.2137 H        38        0    0.0000
    595 H         131.5222  118.2855  127.6767 H        38        0    0.0000
    596 H         131.9730  116.0870  128.3125 H        38        0    0.0000
    597 H         133.8885  117.8776  129.7909 H        38        0    0.0000
    598 H         133.8292  116.2061  130.3358 H        38        0    0.0000
    599 C         134.7871  112.6718  127.8060 C.3      39        0    0.0000
    600 C         134.7748  113.8901  128.7186 C.3      39        0    0.0000
    601 C         134.2719  115.0041  127.7947 C.3      39        0    0.0000
    602 C         134.5208  116.4319  128.2904 C.3      39        0    0.0000
    603 C         134.8522  114.6723  126.4059 C.3      39        0    0.0000
    604 C         135.3754  113.2259  126.5042 C.3      39        0    0.0000
    605 C         135.1550  112.3581  125.2614 C.3      39        0    0.0000
    606 H         135.3930  111.8587  128.2177 H        39        0    0.0000
    607 H         133.7654  112.3001  127.6712 H        39        0    0.0000
    608 H         134.1199  113.7463  129.5836 H        39        0    0.0000
    609 H         135.7875  114.0863  129.0875 H        39        0    0.0000
    610 H         133.1805  114.8860  127.7174 H        39        0    0.0000
    611 H         135.5708  116.5286  128.5908 H        39        0    0.0000
    612 H         134.3647  117.1316  127.4608 H        39        0    0.0000
    613 H         135.6717  115.3391  126.1166 H        39        0    0.0000
    614 H         134.0731  114.7925  125.6454 H        39        0    0.0000
    615 H         136.4641  113.2930  126.6494 H        39        0    0.0000
    616 H         135.4451  111.3257  125.4897 H        39        0    0.0000
    617 H         134.0851  112.3392  125.0225 H        39        0    0.0000
    618 C         139.4148  111.5487  124.2389 C.3      40        0    0.0000
    619 C         138.0941  111.7943  124.9726 C.3      40        0    0.0000
    620 C         137.4351  113.0104  124.2974 C.3      40        0    0.0000
    621 C         135.9408  112.8320  124.0020 C.3      40        0    0.0000
    622 C         138.2588  113.2338  123.0251 C.3      40        0    0.0000
    623 C         139.6806  112.8075  123.4062 C.3      40        0    0.0000
    624 C         140.4328  113.9021  124.1867 C.3      40        0    0.0000
    625 H         140.2246  111.2977  124.9306 H        40        0    0.0000
    626 H         139.2903  110.6913  123.5650 H        40        0    0.0000
    627 H         137.4700  110.8948  124.9321 H        40        0    0.0000
    628 H         138.2804  112.0118  126.0308 H        40        0    0.0000
    629 H         137.5724  113.8840  124.9506 H        40        0    0.0000
    630 H         135.5199  113.7881  123.6686 H        40        0    0.0000
    631 H         135.7949  112.1180  123.1833 H        40        0    0.0000
    632 H         138.2043  114.2708  122.6781 H        40        0    0.0000
    633 H         137.8898  112.5930  122.2138 H        40        0    0.0000
    634 H         140.2439  112.5530  122.4994 H        40        0    0.0000
    635 H         141.0090  113.4731  125.0139 H        40        0    0.0000
    636 H         139.7086  114.5963  124.6293 H        40        0    0.0000
    637 C         142.6210  111.4486  122.0181 C.3      41        0    0.0000
    638 C         142.5281  112.4060  123.2088 C.3      41        0    0.0000
    639 C         142.4579  113.8286  122.6252 C.3      41        0    0.0000
    640 C         141.3847  114.7181  123.2649 C.3      41        0    0.0000
    641 C         142.2218  113.6155  121.1265 C.3      41        0    0.0000
    642 C         142.9628  112.3143  120.8005 C.3      41        0    0.0000
    643 C         144.4769  112.5306  120.6172 C.3      41        0    0.0000
    644 H         143.3359  110.6405  122.2001 H        41        0    0.0000
    645 H         141.6400  110.9814  121.8633 H        41        0    0.0000
    646 H         141.6573  112.1551  123.8245 H        41        0    0.0000
    647 H         143.4145  112.3088  123.8465 H        41        0    0.0000
    648 H         143.4420  114.3022  122.7516 H        41        0    0.0000
    649 H         141.8693  115.4962  123.8666 H        41        0    0.0000
    650 H         140.8020  115.2316  122.4913 H        41        0    0.0000
    651 H         142.5721  114.4649  120.5313 H        41        0    0.0000
    652 H         141.1507  113.4873  120.9230 H        41        0    0.0000
    653 H         142.5440  111.8712  119.8880 H        41        0    0.0000
    654 H         144.9476  112.8479  121.5543 H        41        0    0.0000
    655 H         144.6444  113.3330  119.8889 H        41        0    0.0000
    656 C         145.9675  109.1391  122.9958 C.3      42        0    0.0000
    657 C         145.1290  110.3007  122.4647 C.3      42        0    0.0000
    658 C         144.8870  110.0231  120.9709 C.3      42        0    0.0000
    659 C         145.1846  111.2469  120.0946 C.3      42        0    0.0000
    660 C         145.7600  108.7990  120.6542 C.3      42        0    0.0000
    661 C         145.8274  108.0121  121.9692 C.3      42        0    0.0000
    662 C         144.5899  107.1390  122.2458 C.3      42        0    0.0000
    663 H         147.0179  109.4535  123.0459 H        42        0    0.0000
    664 H         145.6696  108.8451  124.0071 H        42        0    0.0000
    665 H         145.6391  111.2534  122.6442 H        42        0    0.0000
    666 H         144.1681  110.3458  122.9906 H        42        0    0.0000
    667 H         143.8315  109.7422  120.8470 H        42        0    0.0000
    668 H         144.8834  111.0555  119.0581 H        42        0    0.0000
    669 H         146.2661  111.4285  120.0815 H        42        0    0.0000
    670 H         145.3580  108.2123  119.8225 H        42        0    0.0000
    671 H         146.7729  109.1160  120.3733 H        42        0    0.0000
    672 H         146.7258  107.3820  121.9872 H        42        0    0.0000
    673 H         143.6954  107.5552  121.7701 H        42        0    0.0000
    674 H         144.3926  107.1241  123.3246 H        42        0    0.0000
    675 C         144.7936  105.6713  121.7744 C.3      43        0    0.0000
    676 C         144.5061  104.6223  122.8581 C.3      43        0    0.0000
    677 H         144.0939  105.5049  120.9453 H        43        0    0.0000
    678 H         145.8023  105.5524  121.3617 H        43        0    0.0000
    679 H         144.7577  105.0004  123.8559 H        43        0    0.0000
    680 H         143.4268  104.4229  122.8611 H        43        0    0.0000
    681 C         145.4004  101.6248  119.1865 C.3      44        0    0.0000
    682 C         144.5964  102.0542  120.4058 C.3      44        0    0.0000
    683 C         145.5728  102.9672  121.1547 C.3      44        0    0.0000
    684 C         145.2200  103.2469  122.6188 C.3      44        0    0.0000
    685 C         146.9668  102.3563  120.9121 C.3      44        0    0.0000
    686 C         146.7841  101.3315  119.7756 C.3      44        0    0.0000
    687 C         147.9290  101.2599  118.7606 C.3      44        0    0.0000
    688 H         144.9663  100.7463  118.6992 H        44        0    0.0000
    689 H         145.4281  102.4404  118.4556 H        44        0    0.0000
    690 H         143.6768  102.5773  120.1256 H        44        0    0.0000
    691 H         144.3205  101.1734  120.9960 H        44        0    0.0000
    692 H         145.5598  103.9393  120.6390 H        44        0    0.0000
    693 H         144.5719  102.4444  122.9905 H        44        0    0.0000
    694 H         146.1361  103.2162  123.2204 H        44        0    0.0000
    695 H         147.3710  101.8532  121.7972 H        44        0    0.0000
    696 H         147.6759  103.1517  120.6583 H        44        0    0.0000
    697 H         146.7250  100.3404  120.2503 H        44        0    0.0000
    698 H         147.7409  101.9821  117.9572 H        44        0    0.0000
    699 H         148.8610  101.5680  119.2492 H        44        0    0.0000
    700 C         151.1871   99.8191  115.9091 C.3      45        0    0.0000
    701 C         150.3187  100.4867  116.9787 C.3      45        0    0.0000
    702 C         148.9059   99.9138  116.8056 C.3      45        0    0.0000
    703 C         148.1373   99.8510  118.1285 C.3      45        0    0.0000
    704 C         149.1601   98.5526  116.1495 C.3      45        0    0.0000
    705 C         150.2628   98.8707  115.1343 C.3      45        0    0.0000
    706 C         151.0060   97.6456  114.5947 C.3      45        0    0.0000
    707 H         151.6391  100.5600  115.2408 H        45        0    0.0000
    708 H         152.0071   99.2744  116.3923 H        45        0    0.0000
    709 H         150.3167  101.5766  116.8696 H        45        0    0.0000
    710 H         150.7247  100.2604  117.9719 H        45        0    0.0000
    711 H         148.3628  100.5510  116.0925 H        45        0    0.0000
    712 H         148.6921   99.2280  118.8402 H        45        0    0.0000
    713 H         147.1634   99.3701  117.9799 H        45        0    0.0000
    714 H         148.2609   98.1573  115.6663 H        45        0    0.0000
    715 H         149.5060   97.8188  116.8883 H        45        0    0.0000
    716 H         149.8191   99.4315  114.2987 H        45        0    0.0000
    717 H         152.0311   97.6213  114.9827 H        45        0    0.0000
    718 H         151.0829   97.7204  113.5034 H        45        0    0.0000
    719 C         151.4052   93.4743  112.7055 C.3      46        0    0.0000
    720 C         150.2866   94.2448  113.3900 C.3      46        0    0.0000
    721 C         151.0169   95.0536  114.4696 C.3      46        0    0.0000
    722 C         150.2873   96.3149  114.9491 C.3      46        0    0.0000
    723 C         152.4434   95.2797  113.9278 C.3      46        0    0.0000
    724 C         152.5200   94.5162  112.5930 C.3      46        0    0.0000
    725 C         153.8794   93.8773  112.2980 C.3      46        0    0.0000
    726 H         151.7173   92.6260  113.3267 H        46        0    0.0000
    727 H         151.0987   93.0890  111.7282 H        46        0    0.0000
    728 H         149.7854   94.8889  112.6594 H        46        0    0.0000
    729 H         149.5334   93.5766  113.8192 H        46        0    0.0000
    730 H         151.1154   94.3998  115.3490 H        46        0    0.0000
    731 H         149.2818   96.3320  114.5120 H        46        0    0.0000
    732 H         150.1562   96.2614  116.0364 H        46        0    0.0000
    733 H         153.1669   94.8858  114.6524 H        46        0    0.0000
    734 H         152.6849   96.3379  113.7822 H        46        0    0.0000
    735 H         152.2593   95.2134  111.7835 H        46        0    0.0000
    736 H         154.0934   93.9225  111.2236 H        46        0    0.0000
    737 H         154.6665   94.4524  112.8001 H        46        0    0.0000
    738 C         154.6037   89.8303  110.0492 C.3      47        0    0.0000
    739 C         153.8447   91.0420  110.5718 C.3      47        0    0.0000
    740 C         154.6685   91.4601  111.7942 C.3      47        0    0.0000
    741 C         153.9599   92.3998  112.7745 C.3      47        0    0.0000
    742 C         155.1947   90.1435  112.3984 C.3      47        0    0.0000
    743 C         154.9435   89.0614  111.3301 C.3      47        0    0.0000
    744 C         156.0428   88.0039  111.1900 C.3      47        0    0.0000
    745 H         153.9973   89.2341  109.3602 H        47        0    0.0000
    746 H         155.5020   90.1586  109.5149 H        47        0    0.0000
    747 H         153.7835   91.8395  109.8248 H        47        0    0.0000
    748 H         152.8239   90.7506  110.8428 H        47        0    0.0000
    749 H         155.5455   92.0067  111.4159 H        47        0    0.0000
    750 H         152.9427   92.0311  112.9521 H        47        0    0.0000
    751 H         154.4793   92.3688  113.7396 H        47        0    0.0000
    752 H         154.6835   89.8669  113.3268 H        47        0    0.0000
    753 H         156.2548   90.2545  112.6509 H        47        0    0.0000
    754 H         154.0310   88.5253  111.6319 H        47        0    0.0000
    755 H         155.9418   87.2729  112.0010 H        47        0    0.0000
    756 H         155.8956   87.4559  110.2518 H        47        0    0.0000
    757 C         159.8785   85.8417  112.2889 C.3      48        0    0.0000
    758 C         159.3251   87.2471  112.4682 C.3      48        0    0.0000
    759 C         158.5954   87.5164  111.1460 C.3      48        0    0.0000
    760 C         157.4909   88.5789  111.2119 C.3      48        0    0.0000
    761 C         158.1535   86.1336  110.6244 C.3      48        0    0.0000
    762 C         158.7214   85.1011  111.6153 C.3      48        0    0.0000
    763 C         159.1718   83.7837  110.9792 C.3      48        0    0.0000
    764 H         160.7649   85.8621  111.6432 H        48        0    0.0000
    765 H         160.1605   85.3877  113.2438 H        48        0    0.0000
    766 H         158.6451   87.2661  113.3267 H        48        0    0.0000
    767 H         160.1185   87.9781  112.6535 H        48        0    0.0000
    768 H         159.3463   87.8941  110.4360 H        48        0    0.0000
    769 H         157.6200   89.1699  112.1264 H        48        0    0.0000
    770 H         157.6100   89.2720  110.3707 H        48        0    0.0000
    771 H         158.5631   85.9844  109.6176 H        48        0    0.0000
    772 H         157.0661   86.0330  110.5421 H        48        0    0.0000
    773 H         157.9538   84.8974  112.3760 H        48        0    0.0000
    774 H         159.9904   83.3434  111.5607 H        48        0    0.0000
    775 H         158.3436   83.0657  111.0082 H        48        0    0.0000
    776 C         156.8395   82.4370  108.6778 C.3      49        0    0.0000
    777 C         158.1472   81.9110  109.2757 C.3      49        0    0.0000
    778 C         159.2774   82.7307  108.6437 C.3      49        0    0.0000
    779 C         159.6286   83.9594  109.5038 C.3      49        0    0.0000
    780 C         158.6980   83.0660  107.2635 C.3      49        0    0.0000
    781 C         157.2280   83.3931  107.5379 C.3      49        0    0.0000
    782 C         156.3588   83.2695  106.2813 C.3      49        0    0.0000
    783 H         156.2278   81.5970  108.3293 H        49        0    0.0000
    784 H         156.2558   82.9705  109.4367 H        49        0    0.0000
    785 H         158.2647   80.8563  108.9960 H        49        0    0.0000
    786 H         158.1427   81.9533  110.3697 H        49        0    0.0000
    787 H         160.1730   82.1059  108.5332 H        49        0    0.0000
    788 H         159.1267   84.8432  109.0914 H        49        0    0.0000
    789 H         160.7031   84.1694  109.4766 H        49        0    0.0000
    790 H         158.7767   82.1853  106.6128 H        49        0    0.0000
    791 H         159.2123   83.8909  106.7614 H        49        0    0.0000
    792 H         157.1667   84.4238  107.9146 H        49        0    0.0000
    793 H         156.4469   84.1727  105.6664 H        49        0    0.0000
    794 H         155.3055   83.1855  106.5740 H        49        0    0.0000
    795 C         156.7424   82.0232  105.4329 C.3      50        0    0.0000
    796 C         156.0771   81.9813  104.0497 C.3      50        0    0.0000
    797 H         157.8295   82.0617  105.2868 H        50        0    0.0000
    798 H         156.5350   81.1101  106.0030 H        50        0    0.0000
    799 H         154.9841   82.0048  104.1319 H        50        0    0.0000
    800 H         156.3702   82.8870  103.5034 H        50        0    0.0000
    801 C         153.4261   78.9737  101.8954 C.3      51        0    0.0000
    802 C         154.0659   80.1962  102.5354 C.3      51        0    0.0000
    803 C         155.4356   79.6834  102.9980 C.3      51        0    0.0000
    804 C         156.5147   80.7600  103.1690 C.3      51        0    0.0000
    805 C         155.7960   78.5318  102.0370 C.3      51        0    0.0000
    806 C         154.5821   78.3554  101.1065 C.3      51        0    0.0000
    807 C         154.2934   76.9087  100.6980 C.3      51        0    0.0000
    808 H         153.0626   78.2864  102.6692 H        51        0    0.0000
    809 H         152.5827   79.2422  101.2519 H        51        0    0.0000
    810 H         154.1537   80.9953  101.7913 H        51        0    0.0000
    811 H         153.4700   80.5797  103.3695 H        51        0    0.0000
    812 H         155.2905   79.2302  103.9900 H        51        0    0.0000
    813 H         157.4043   80.3037  103.6192 H        51        0    0.0000
    814 H         156.8157   81.1257  102.1801 H        51        0    0.0000
    815 H         155.9821   77.6231  102.6230 H        51        0    0.0000
    816 H         156.7037   78.7254  101.4558 H        51        0    0.0000
    817 H         154.7489   78.9643  100.2059 H        51        0    0.0000
    818 H         153.2159   76.7109  100.7428 H        51        0    0.0000
    819 H         154.5976   76.7591   99.6552 H        51        0    0.0000
    820 C         155.2055   73.4841   99.3469 C.3      52        0    0.0000
    821 C         154.0121   74.1663  100.0211 C.3      52        0    0.0000
    822 C         154.4372   74.4656  101.4629 C.3      52        0    0.0000
    823 C         155.0410   75.8771  101.5887 C.3      52        0    0.0000
    824 C         155.4221   73.3254  101.7506 C.3      52        0    0.0000
    825 C         156.2268   73.1828  100.4563 C.3      52        0    0.0000
    826 C         156.9056   71.8133  100.3396 C.3      52        0    0.0000
    827 H         154.8700   72.5781   98.8295 H        52        0    0.0000
    828 H         155.6501   74.1429   98.5922 H        52        0    0.0000
    829 H         153.1652   73.4684  100.0308 H        52        0    0.0000
    830 H         153.6869   75.0565   99.4732 H        52        0    0.0000
    831 H         153.5690   74.3890  102.1301 H        52        0    0.0000
    832 H         156.0914   75.8489  101.2746 H        52        0    0.0000
    833 H         155.0352   76.2204  102.6287 H        52        0    0.0000
    834 H         154.8615   72.4035  101.9534 H        52        0    0.0000
    835 H         156.0681   73.5121  102.6136 H        52        0    0.0000
    836 H         156.9976   73.9661  100.4391 H        52        0    0.0000
    837 H         157.4847   71.5964  101.2447 H        52        0    0.0000
    838 H         157.6153   71.8288   99.5040 H        52        0    0.0000
    839 C         155.8734   70.6748  100.0971 C.3      53        0    0.0000
    840 C         156.0061   69.9937   98.7275 C.3      53        0    0.0000
    841 H         154.8775   71.1325  100.1547 H        53        0    0.0000
    842 H         155.9304   69.9446  100.9129 H        53        0    0.0000
    843 H         156.4578   70.7127   98.0321 H        53        0    0.0000
    844 H         156.6846   69.1338   98.7737 H        53        0    0.0000
    845 C         152.0952   69.7447  100.8799 C.3      54        0    0.0000
    846 C         153.3862   70.1955  100.2138 C.3      54        0    0.0000
    847 C         153.6209   69.1158   99.1554 C.3      54        0    0.0000
    848 C         154.6383   69.5544   98.0992 C.3      54        0    0.0000
    849 C         152.2107   68.8255   98.6097 C.3      54        0    0.0000
    850 C         151.2249   69.2876   99.7024 C.3      54        0    0.0000
    851 C         150.1176   68.2866  100.0559 C.3      54        0    0.0000
    852 H         151.6239   70.5536  101.4469 H        54        0    0.0000
    853 H         152.3091   68.9275  101.5772 H        54        0    0.0000
    854 H         153.2508   71.1806   99.7510 H        54        0    0.0000
    855 H         154.2134   70.2627  100.9270 H        54        0    0.0000
    856 H         153.9857   68.2104   99.6621 H        54        0    0.0000
    857 H         154.8139   68.7428   97.3831 H        54        0    0.0000
    858 H         154.2274   70.3950   97.5275 H        54        0    0.0000
    859 H         152.0164   69.3926   97.6908 H        54        0    0.0000
    860 H         152.1050   67.7654   98.3561 H        54        0    0.0000
    861 H         150.7192   70.1827   99.3104 H        54        0    0.0000
    862 H         149.1560   68.8123  100.0871 H        54        0    0.0000
    863 H         150.2970   67.8999  101.0662 H        54        0    0.0000
    864 C         150.5426   64.0126  101.2271 C.3      55        0    0.0000
    865 C         150.4163   65.5233  101.1030 C.3      55        0    0.0000
    866 C         150.6086   65.7770   99.6024 C.3      55        0    0.0000
    867 C         150.0020   67.0838   99.0759 C.3      55        0    0.0000
    868 C         150.1271   64.4924   98.8971 C.3      55        0    0.0000
    869 C         149.7575   63.5025  100.0169 C.3      55        0    0.0000
    870 C         150.0678   62.0366   99.7038 C.3      55        0    0.0000
    871 H         151.5963   63.7137  101.1700 H        55        0    0.0000
    872 H         150.1323   63.6435  102.1720 H        55        0    0.0000
    873 H         149.4267   65.8378  101.4516 H        55        0    0.0000
    874 H         151.1653   66.0467  101.7054 H        55        0    0.0000
    875 H         151.6923   65.8451   99.4245 H        55        0    0.0000
    876 H         150.4950   67.3506   98.1334 H        55        0    0.0000
    877 H         148.9439   66.9184   98.8408 H        55        0    0.0000
    878 H         150.9410   64.1009   98.2741 H        55        0    0.0000
    879 H         149.2729   64.6614   98.2330 H        55        0    0.0000
    880 H         148.6844   63.6123  100.2314 H        55        0    0.0000
    881 H         150.9917   61.7296  100.2080 H        55        0    0.0000
    882 H         149.2663   61.4035  100.1027 H        55        0    0.0000
    883 C         150.2033   61.7684   98.1786 C.3      56        0    0.0000
    884 C         151.6512   61.7869   97.6681 C.3      56        0    0.0000
    885 H         149.6515   62.5669   97.6662 H        56        0    0.0000
    886 H         149.7022   60.8274   97.9230 H        56        0    0.0000
    887 H         152.2650   61.2006   98.3639 H        56        0    0.0000
    888 H         151.7353   61.3000   96.6894 H        56        0    0.0000
    889 C         149.1843   64.1038   95.7649 C.3      57        0    0.0000
    890 C         150.5850   63.4923   95.6807 C.3      57        0    0.0000
    891 C         151.4319   64.1812   96.7658 C.3      57        0    0.0000
    892 C         152.2852   63.2194   97.6019 C.3      57        0    0.0000
    893 C         150.4136   64.9473   97.6161 C.3      57        0    0.0000
    894 C         149.3203   65.3640   96.6264 C.3      57        0    0.0000
    895 C         149.7088   66.6138   95.8138 C.3      57        0    0.0000
    896 H         148.7610   64.2903   94.7733 H        57        0    0.0000
    897 H         148.5183   63.3928   96.2703 H        57        0    0.0000
    898 H         150.5281   62.4060   95.8110 H        57        0    0.0000
    899 H         151.0234   63.6775   94.6931 H        57        0    0.0000
    900 H         152.0887   64.9147   96.2766 H        57        0    0.0000
    901 H         153.2834   63.1379   97.1555 H        57        0    0.0000
    902 H         152.4219   63.6119   98.6162 H        57        0    0.0000
    903 H         150.8681   65.7998   98.1313 H        57        0    0.0000
    904 H         149.9825   64.2889   98.3814 H        57        0    0.0000
    905 H         148.3865   65.5572   97.1695 H        57        0    0.0000
    906 H         150.5199   66.3928   95.1113 H        57        0    0.0000
    907 H         150.0793   67.3897   96.4943 H        57        0    0.0000
    908 H         148.8586   67.0208   95.2664 H        57        0    0.0000
    909 H         100.3843  158.8087   60.9454 H         0        0    0.0000
@<TRIPOS>BOND
     1     1     2      1
     2     1     6      1
     3     1     8      1
     4     1     9      1
     5     2     3      1
     6     2    10      1
     7     2    11      1
     8     3     4      1
     9     3     5      1
    10     3    12      1
    11     4    13      1
    12     4    14      1
    13     4   909      H
    14     5     6      1
    15     5    15      1
    16     5    16      1
    17     6     7      1
    18     6    17      1
    19     7    18      1
    20     7    19      1
    21     7    23      1
    22    20    21      1
    23    20    25      1
    24    20    27      1
    25    20    28      1
    26    21    22      1
    27    21    29      1
    28    21    30      1
    29    22    23      1
    30    22    24      1
    31    22    31      1
    32    23    32      1
    33    23    33      1
    34    24    25      1
    35    24    34      1
    36    24    35      1
    37    25    26      1
    38    25    36      1
    39    26    37      1
    40    26    38      1
    41    26    39      1
    42    39    40      1
    43    39    41      1
    44    39    42      1
    45    40    43      1
    46    40    44      1
    47    40    48      1
    48    45    46      1
    49    45    50      1
    50    45    52      1
    51    45    53      1
    52    46    47      1
    53    46    54      1
    54    46    55      1
    55    47    48      1
    56    47    49      1
    57    47    56      1
    58    48    57      1
    59    48    58      1
    60    49    50      1
    61    49    59      1
    62    49    60      1
    63    50    51      1
    64    50    61      1
    65    51    62      1
    66    51    63      1
    67    51    64      1
    68    64    65      1
    69    64    66      1
    70    64    67      1
    71    65    68      1
    72    65    69      1
    73    65    73      1
    74    70    71      1
    75    70    75      1
    76    70    77      1
    77    70    78      1
    78    71    72      1
    79    71    79      1
    80    71    80      1
    81    72    73      1
    82    72    74      1
    83    72    81      1
    84    73    82      1
    85    73    83      1
    86    74    75      1
    87    74    84      1
    88    74    85      1
    89    75    76      1
    90    75    86      1
    91    76    87      1
    92    76    88      1
    93    76    92      1
    94    89    90      1
    95    89    94      1
    96    89    96      1
    97    89    97      1
    98    90    91      1
    99    90    98      1
   100    90    99      1
   101    91    92      1
   102    91    93      1
   103    91   100      1
   104    92   101      1
   105    92   102      1
   106    93    94      1
   107    93   103      1
   108    93   104      1
   109    94    95      1
   110    94   105      1
   111    95   106      1
   112    95   107      1
   113    95   108      1
   114   108   109      1
   115   108   110      1
   116   108   111      1
   117   109   112      1
   118   109   113      1
   119   109   114      1
   120   114   115      1
   121   114   116      1
   122   114   117      1
   123   115   118      1
   124   115   119      1
   125   115   120      1
   126   120   121      1
   127   120   122      1
   128   120   123      1
   129   121   124      1
   130   121   125      1
   131   121   126      1
   132   126   127      1
   133   126   128      1
   134   126   129      1
   135   127   130      1
   136   127   131      1
   137   127   135      1
   138   132   133      1
   139   132   137      1
   140   132   139      1
   141   132   140      1
   142   133   134      1
   143   133   141      1
   144   133   142      1
   145   134   135      1
   146   134   136      1
   147   134   143      1
   148   135   144      1
   149   135   145      1
   150   136   137      1
   151   136   146      1
   152   136   147      1
   153   137   138      1
   154   137   148      1
   155   138   149      1
   156   138   150      1
   157   138   154      1
   158   151   152      1
   159   151   156      1
   160   151   158      1
   161   151   159      1
   162   152   153      1
   163   152   160      1
   164   152   161      1
   165   153   154      1
   166   153   155      1
   167   153   162      1
   168   154   163      1
   169   154   164      1
   170   155   156      1
   171   155   165      1
   172   155   166      1
   173   156   157      1
   174   156   167      1
   175   157   168      1
   176   157   169      1
   177   157   170      1
   178   170   171      1
   179   170   172      1
   180   170   173      1
   181   171   174      1
   182   171   175      1
   183   171   179      1
   184   176   177      1
   185   176   181      1
   186   176   183      1
   187   176   184      1
   188   177   178      1
   189   177   185      1
   190   177   186      1
   191   178   179      1
   192   178   180      1
   193   178   187      1
   194   179   188      1
   195   179   189      1
   196   180   181      1
   197   180   190      1
   198   180   191      1
   199   181   182      1
   200   181   192      1
   201   182   193      1
   202   182   194      1
   203   182   195      1
   204   195   196      1
   205   195   197      1
   206   195   198      1
   207   196   199      1
   208   196   200      1
   209   196   204      1
   210   201   202      1
   211   201   206      1
   212   201   208      1
   213   201   209      1
   214   202   203      1
   215   202   210      1
   216   202   211      1
   217   203   204      1
   218   203   205      1
   219   203   212      1
   220   204   213      1
   221   204   214      1
   222   205   206      1
   223   205   215      1
   224   205   216      1
   225   206   207      1
   226   206   217      1
   227   207   218      1
   228   207   219      1
   229   207   223      1
   230   220   221      1
   231   220   225      1
   232   220   227      1
   233   220   228      1
   234   221   222      1
   235   221   229      1
   236   221   230      1
   237   222   223      1
   238   222   224      1
   239   222   231      1
   240   223   232      1
   241   223   233      1
   242   224   225      1
   243   224   234      1
   244   224   235      1
   245   225   226      1
   246   225   236      1
   247   226   237      1
   248   226   238      1
   249   226   242      1
   250   239   240      1
   251   239   244      1
   252   239   246      1
   253   239   247      1
   254   240   241      1
   255   240   248      1
   256   240   249      1
   257   241   242      1
   258   241   243      1
   259   241   250      1
   260   242   251      1
   261   242   252      1
   262   243   244      1
   263   243   253      1
   264   243   254      1
   265   244   245      1
   266   244   255      1
   267   245   256      1
   268   245   257      1
   269   245   261      1
   270   258   259      1
   271   258   263      1
   272   258   265      1
   273   258   266      1
   274   259   260      1
   275   259   267      1
   276   259   268      1
   277   260   261      1
   278   260   262      1
   279   260   269      1
   280   261   270      1
   281   261   271      1
   282   262   263      1
   283   262   272      1
   284   262   273      1
   285   263   264      1
   286   263   274      1
   287   264   275      1
   288   264   276      1
   289   264   277      1
   290   277   278      1
   291   277   279      1
   292   277   280      1
   293   278   281      1
   294   278   282      1
   295   278   286      1
   296   283   284      1
   297   283   288      1
   298   283   290      1
   299   283   291      1
   300   284   285      1
   301   284   292      1
   302   284   293      1
   303   285   286      1
   304   285   287      1
   305   285   294      1
   306   286   295      1
   307   286   296      1
   308   287   288      1
   309   287   297      1
   310   287   298      1
   311   288   289      1
   312   288   299      1
   313   289   300      1
   314   289   301      1
   315   289   305      1
   316   302   303      1
   317   302   307      1
   318   302   309      1
   319   302   310      1
   320   303   304      1
   321   303   311      1
   322   303   312      1
   323   304   305      1
   324   304   306      1
   325   304   313      1
   326   305   314      1
   327   305   315      1
   328   306   307      1
   329   306   316      1
   330   306   317      1
   331   307   308      1
   332   307   318      1
   333   308   319      1
   334   308   320      1
   335   308   324      1
   336   321   322      1
   337   321   326      1
   338   321   328      1
   339   321   329      1
   340   322   323      1
   341   322   330      1
   342   322   331      1
   343   323   324      1
   344   323   325      1
   345   323   332      1
   346   324   333      1
   347   324   334      1
   348   325   326      1
   349   325   335      1
   350   325   336      1
   351   326   327      1
   352   326   337      1
   353   327   338      1
   354   327   339      1
   355   327   343      1
   356   340   341      1
   357   340   345      1
   358   340   347      1
   359   340   348      1
   360   341   342      1
   361   341   349      1
   362   341   350      1
   363   342   343      1
   364   342   344      1
   365   342   351      1
   366   343   352      1
   367   343   353      1
   368   344   345      1
   369   344   354      1
   370   344   355      1
   371   345   346      1
   372   345   356      1
   373   346   357      1
   374   346   358      1
   375   346   362      1
   376   359   360      1
   377   359   364      1
   378   359   366      1
   379   359   367      1
   380   360   361      1
   381   360   368      1
   382   360   369      1
   383   361   362      1
   384   361   363      1
   385   361   370      1
   386   362   371      1
   387   362   372      1
   388   363   364      1
   389   363   373      1
   390   363   374      1
   391   364   365      1
   392   364   375      1
   393   365   376      1
   394   365   377      1
   395   365   381      1
   396   378   379      1
   397   378   383      1
   398   378   385      1
   399   378   386      1
   400   379   380      1
   401   379   387      1
   402   379   388      1
   403   380   381      1
   404   380   382      1
   405   380   389      1
   406   381   390      1
   407   381   391      1
   408   382   383      1
   409   382   392      1
   410   382   393      1
   411   383   384      1
   412   383   394      1
   413   384   395      1
   414   384   396      1
   415   384   397      1
   416   397   398      1
   417   397   399      1
   418   397   400      1
   419   398   401      1
   420   398   402      1
   421   398   406      1
   422   403   404      1
   423   403   408      1
   424   403   410      1
   425   403   411      1
   426   404   405      1
   427   404   412      1
   428   404   413      1
   429   405   406      1
   430   405   407      1
   431   405   414      1
   432   406   415      1
   433   406   416      1
   434   407   408      1
   435   407   417      1
   436   407   418      1
   437   408   409      1
   438   408   419      1
   439   409   420      1
   440   409   421      1
   441   409   425      1
   442   422   423      1
   443   422   427      1
   444   422   429      1
   445   422   430      1
   446   423   424      1
   447   423   431      1
   448   423   432      1
   449   424   425      1
   450   424   426      1
   451   424   433      1
   452   425   434      1
   453   425   435      1
   454   426   427      1
   455   426   436      1
   456   426   437      1
   457   427   428      1
   458   427   438      1
   459   428   439      1
   460   428   440      1
   461   428   444      1
   462   441   442      1
   463   441   446      1
   464   441   448      1
   465   441   449      1
   466   442   443      1
   467   442   450      1
   468   442   451      1
   469   443   444      1
   470   443   445      1
   471   443   452      1
   472   444   453      1
   473   444   454      1
   474   445   446      1
   475   445   455      1
   476   445   456      1
   477   446   447      1
   478   446   457      1
   479   447   458      1
   480   447   459      1
   481   447   463      1
   482   460   461      1
   483   460   465      1
   484   460   467      1
   485   460   468      1
   486   461   462      1
   487   461   469      1
   488   461   470      1
   489   462   463      1
   490   462   464      1
   491   462   471      1
   492   463   472      1
   493   463   473      1
   494   464   465      1
   495   464   474      1
   496   464   475      1
   497   465   466      1
   498   465   476      1
   499   466   477      1
   500   466   478      1
   501   466   479      1
   502   479   480      1
   503   479   481      1
   504   479   482      1
   505   480   483      1
   506   480   484      1
   507   480   488      1
   508   485   486      1
   509   485   490      1
   510   485   492      1
   511   485   493      1
   512   486   487      1
   513   486   494      1
   514   486   495      1
   515   487   488      1
   516   487   489      1
   517   487   496      1
   518   488   497      1
   519   488   498      1
   520   489   490      1
   521   489   499      1
   522   489   500      1
   523   490   491      1
   524   490   501      1
   525   491   502      1
   526   491   503      1
   527   491   507      1
   528   504   505      1
   529   504   509      1
   530   504   511      1
   531   504   512      1
   532   505   506      1
   533   505   513      1
   534   505   514      1
   535   506   507      1
   536   506   508      1
   537   506   515      1
   538   507   516      1
   539   507   517      1
   540   508   509      1
   541   508   518      1
   542   508   519      1
   543   509   510      1
   544   509   520      1
   545   510   521      1
   546   510   522      1
   547   510   526      1
   548   523   524      1
   549   523   528      1
   550   523   530      1
   551   523   531      1
   552   524   525      1
   553   524   532      1
   554   524   533      1
   555   525   526      1
   556   525   527      1
   557   525   534      1
   558   526   535      1
   559   526   536      1
   560   527   528      1
   561   527   537      1
   562   527   538      1
   563   528   529      1
   564   528   539      1
   565   529   540      1
   566   529   541      1
   567   529   545      1
   568   542   543      1
   569   542   547      1
   570   542   549      1
   571   542   550      1
   572   543   544      1
   573   543   551      1
   574   543   552      1
   575   544   545      1
   576   544   546      1
   577   544   553      1
   578   545   554      1
   579   545   555      1
   580   546   547      1
   581   546   556      1
   582   546   557      1
   583   547   548      1
   584   547   558      1
   585   548   559      1
   586   548   560      1
   587   548   564      1
   588   561   562      1
   589   561   566      1
   590   561   568      1
   591   561   569      1
   592   562   563      1
   593   562   570      1
   594   562   571      1
   595   563   564      1
   596   563   565      1
   597   563   572      1
   598   564   573      1
   599   564   574      1
   600   565   566      1
   601   565   575      1
   602   565   576      1
   603   566   567      1
   604   566   577      1
   605   567   578      1
   606   567   579      1
   607   567   583      1
   608   580   581      1
   609   580   585      1
   610   580   587      1
   611   580   588      1
   612   581   582      1
   613   581   589      1
   614   581   590      1
   615   582   583      1
   616   582   584      1
   617   582   591      1
   618   583   592      1
   619   583   593      1
   620   584   585      1
   621   584   594      1
   622   584   595      1
   623   585   586      1
   624   585   596      1
   625   586   597      1
   626   586   598      1
   627   586   602      1
   628   599   600      1
   629   599   604      1
   630   599   606      1
   631   599   607      1
   632   600   601      1
   633   600   608      1
   634   600   609      1
   635   601   602      1
   636   601   603      1
   637   601   610      1
   638   602   611      1
   639   602   612      1
   640   603   604      1
   641   603   613      1
   642   603   614      1
   643   604   605      1
   644   604   615      1
   645   605   616      1
   646   605   617      1
   647   605   621      1
   648   618   619      1
   649   618   623      1
   650   618   625      1
   651   618   626      1
   652   619   620      1
   653   619   627      1
   654   619   628      1
   655   620   621      1
   656   620   622      1
   657   620   629      1
   658   621   630      1
   659   621   631      1
   660   622   623      1
   661   622   632      1
   662   622   633      1
   663   623   624      1
   664   623   634      1
   665   624   635      1
   666   624   636      1
   667   624   640      1
   668   637   638      1
   669   637   642      1
   670   637   644      1
   671   637   645      1
   672   638   639      1
   673   638   646      1
   674   638   647      1
   675   639   640      1
   676   639   641      1
   677   639   648      1
   678   640   649      1
   679   640   650      1
   680   641   642      1
   681   641   651      1
   682   641   652      1
   683   642   643      1
   684   642   653      1
   685   643   654      1
   686   643   655      1
   687   643   659      1
   688   656   657      1
   689   656   661      1
   690   656   663      1
   691   656   664      1
   692   657   658      1
   693   657   665      1
   694   657   666      1
   695   658   659      1
   696   658   660      1
   697   658   667      1
   698   659   668      1
   699   659   669      1
   700   660   661      1
   701   660   670      1
   702   660   671      1
   703   661   662      1
   704   661   672      1
   705   662   673      1
   706   662   674      1
   707   662   675      1
   708   675   676      1
   709   675   677      1
   710   675   678      1
   711   676   679      1
   712   676   680      1
   713   676   684      1
   714   681   682      1
   715   681   686      1
   716   681   688      1
   717   681   689      1
   718   682   683      1
   719   682   690      1
   720   682   691      1
   721   683   684      1
   722   683   685      1
   723   683   692      1
   724   684   693      1
   725   684   694      1
   726   685   686      1
   727   685   695      1
   728   685   696      1
   729   686   687      1
   730   686   697      1
   731   687   698      1
   732   687   699      1
   733   687   703      1
   734   700   701      1
   735   700   705      1
   736   700   707      1
   737   700   708      1
   738   701   702      1
   739   701   709      1
   740   701   710      1
   741   702   703      1
   742   702   704      1
   743   702   711      1
   744   703   712      1
   745   703   713      1
   746   704   705      1
   747   704   714      1
   748   704   715      1
   749   705   706      1
   750   705   716      1
   751   706   717      1
   752   706   718      1
   753   706   722      1
   754   719   720      1
   755   719   724      1
   756   719   726      1
   757   719   727      1
   758   720   721      1
   759   720   728      1
   760   720   729      1
   761   721   722      1
   762   721   723      1
   763   721   730      1
   764   722   731      1
   765   722   732      1
   766   723   724      1
   767   723   733      1
   768   723   734      1
   769   724   725      1
   770   724   735      1
   771   725   736      1
   772   725   737      1
   773   725   741      1
   774   738   739      1
   775   738   743      1
   776   738   745      1
   777   738   746      1
   778   739   740      1
   779   739   747      1
   780   739   748      1
   781   740   741      1
   782   740   742      1
   783   740   749      1
   784   741   750      1
   785   741   751      1
   786   742   743      1
   787   742   752      1
   788   742   753      1
   789   743   744      1
   790   743   754      1
   791   744   755      1
   792   744   756      1
   793   744   760      1
   794   757   758      1
   795   757   762      1
   796   757   764      1
   797   757   765      1
   798   758   759      1
   799   758   766      1
   800   758   767      1
   801   759   760      1
   802   759   761      1
   803   759   768      1
   804   760   769      1
   805   760   770      1
   806   761   762      1
   807   761   771      1
   808   761   772      1
   809   762   763      1
   810   762   773      1
   811   763   774      1
   812   763   775      1
   813   763   779      1
   814   776   777      1
   815   776   781      1
   816   776   783      1
   817   776   784      1
   818   777   778      1
   819   777   785      1
   820   777   786      1
   821   778   779      1
   822   778   780      1
   823   778   787      1
   824   779   788      1
   825   779   789      1
   826   780   781      1
   827   780   790      1
   828   780   791      1
   829   781   782      1
   830   781   792      1
   831   782   793      1
   832   782   794      1
   833   782   795      1
   834   795   796      1
   835   795   797      1
   836   795   798      1
   837   796   799      1
   838   796   800      1
   839   796   804      1
   840   801   802      1
   841   801   806      1
   842   801   808      1
   843   801   809      1
   844   802   803      1
   845   802   810      1
   846   802   811      1
   847   803   804      1
   848   803   805      1
   849   803   812      1
   850   804   813      1
   851   804   814      1
   852   805   806      1
   853   805   815      1
   854   805   816      1
   855   806   807      1
   856   806   817      1
   857   807   818      1
   858   807   819      1
   859   807   823      1
   860   820   821      1
   861   820   825      1
   862   820   827      1
   863   820   828      1
   864   821   822      1
   865   821   829      1
   866   821   830      1
   867   822   823      1
   868   822   824      1
   869   822   831      1
   870   823   832      1
   871   823   833      1
   872   824   825      1
   873   824   834      1
   874   824   835      1
   875   825   826      1
   876   825   836      1
   877   826   837      1
   878   826   838      1
   879   826   839      1
   880   839   840      1
   881   839   841      1
   882   839   842      1
   883   840   843      1
   884   840   844      1
   885   840   848      1
   886   845   846      1
   887   845   850      1
   888   845   852      1
   889   845   853      1
   890   846   847      1
   891   846   854      1
   892   846   855      1
   893   847   848      1
   894   847   849      1
   895   847   856      1
   896   848   857      1
   897   848   858      1
   898   849   850      1
   899   849   859      1
   900   849   860      1
   901   850   851      1
   902   850   861      1
   903   851   862      1
   904   851   863      1
   905   851   867      1
   906   864   865      1
   907   864   869      1
   908   864   871      1
   909   864   872      1
   910   865   866      1
   911   865   873      1
   912   865   874      1
   913   866   867      1
   914   866   868      1
   915   866   875      1
   916   867   876      1
   917   867   877      1
   918   868   869      1
   919   868   878      1
   920   868   879      1
   921   869   870      1
   922   869   880      1
   923   870   881      1
   924   870   882      1
   925   870   883      1
   926   883   884      1
   927   883   885      1
   928   883   886      1
   929   884   887      1
   930   884   888      1
   931   884   892      1
   932   889   890      1
   933   889   894      1
   934   889   896      1
   935   889   897      1
   936   890   891      1
   937   890   898      1
   938   890   899      1
   939   891   892      1
   940   891   893      1
   941   891   900      1
   942   892   901      1
   943   892   902      1
   944   893   894      1
   945   893   903      1
   946   893   904      1
   947   894   895      1
   948   894   905      1
   949   895   906      1
   950   895   907      1
   951   895   908      H
