###
### Created by PolyChef-cpp17 on Wed Feb 26 21:14:13 2025
###

@<TRIPOS>MOLECULE
NO_INFO
934 977 1 0 0
SMALL
USER_CHARGES


@<TRIPOS>ATOM
      1 C          48.6031  158.6618  157.4308 C.3       0        0    0.0000
      2 C          48.7419  160.1764  157.3652 C.3       0        0    0.0000
      3 C          50.2589  160.3834  157.4256 C.3       0        0    0.0000
      4 C          50.7152  161.8021  157.7793 C.3       0        0    0.0000
      5 C          50.7844  159.2668  158.3488 C.3       0        0    0.0000
      6 C          49.6181  158.2721  158.5103 C.3       0        0    0.0000
      7 C          50.0117  156.7921  158.5391 C.3       0        0    0.0000
      8 H          47.5857  158.3556  157.6932 H         0        0    0.0000
      9 H          48.8493  158.2252  156.4567 H         0        0    0.0000
     10 H          48.3069  160.5874  156.4489 H         0        0    0.0000
     11 H          48.2294  160.6323  158.2194 H         0        0    0.0000
     12 H          50.6500  160.1713  156.4190 H         0        0    0.0000
     13 H          50.6635  161.9342  158.8666 H         0        0    0.0000
     14 H          51.7682  161.9207  157.4974 H         0        0    0.0000
     15 H          51.0889  159.6368  159.3337 H         0        0    0.0000
     16 H          51.6741  158.8106  157.9017 H         0        0    0.0000
     17 H          49.1497  158.4897  159.4821 H         0        0    0.0000
     18 H          49.2118  156.2182  159.0218 H         0        0    0.0000
     19 H          50.0883  156.4215  157.5100 H         0        0    0.0000
     20 C          52.3246  157.0781  162.8119 C.3       1        0    0.0000
     21 C          51.1935  156.7267  161.8423 C.3       1        0    0.0000
     22 C          51.5357  157.4037  160.5030 C.3       1        0    0.0000
     23 C          51.3526  156.5002  159.2772 C.3       1        0    0.0000
     24 C          52.9845  157.8725  160.6711 C.3       1        0    0.0000
     25 C          53.1066  158.2225  162.1580 C.3       1        0    0.0000
     26 C          52.5298  159.6133  162.4835 C.3       1        0    0.0000
     27 H          51.9459  157.3160  163.8105 H         1        0    0.0000
     28 H          52.9832  156.2064  162.9170 H         1        0    0.0000
     29 H          51.0974  155.6386  161.7570 H         1        0    0.0000
     30 H          50.2368  157.1077  162.2181 H         1        0    0.0000
     31 H          50.8995  158.2937  160.3939 H         1        0    0.0000
     32 H          52.1792  156.6672  158.5764 H         1        0    0.0000
     33 H          51.3928  155.4447  159.5701 H         1        0    0.0000
     34 H          53.2213  158.7162  160.0148 H         1        0    0.0000
     35 H          53.6799  157.0585  160.4286 H         1        0    0.0000
     36 H          54.1611  158.1848  162.4595 H         1        0    0.0000
     37 H          51.9613  159.5968  163.4199 H         1        0    0.0000
     38 H          51.8318  159.9120  161.6923 H         1        0    0.0000
     39 C          53.6458  160.6938  162.5778 C.3       2        0    0.0000
     40 C          53.5841  161.5446  163.8544 C.3       2        0    0.0000
     41 H          54.6049  160.1601  162.5704 H         2        0    0.0000
     42 H          53.6294  161.3213  161.6790 H         2        0    0.0000
     43 H          53.8684  162.5845  163.6549 H         2        0    0.0000
     44 H          52.5426  161.5649  164.2000 H         2        0    0.0000
     45 C          58.0526  161.5467  165.6880 C.3       3        0    0.0000
     46 C          56.7745  162.0847  165.0401 C.3       3        0    0.0000
     47 C          55.9243  160.8592  164.6599 C.3       3        0    0.0000
     48 C          54.4430  160.9800  165.0386 C.3       3        0    0.0000
     49 C          56.6121  159.6843  165.3625 C.3       3        0    0.0000
     50 C          58.1001  160.0505  165.3593 C.3       3        0    0.0000
     51 C          58.7766  159.7486  164.0086 C.3       3        0    0.0000
     52 H          58.9387  162.0990  165.3610 H         3        0    0.0000
     53 H          57.9777  161.6738  166.7756 H         3        0    0.0000
     54 H          56.2602  162.7617  165.7311 H         3        0    0.0000
     55 H          57.0169  162.6628  164.1407 H         3        0    0.0000
     56 H          56.0082  160.7044  163.5747 H         3        0    0.0000
     57 H          54.0553  159.9905  165.3087 H         3        0    0.0000
     58 H          54.3242  161.6194  165.9209 H         3        0    0.0000
     59 H          56.4076  158.7315  164.8636 H         3        0    0.0000
     60 H          56.2587  159.5987  166.3983 H         3        0    0.0000
     61 H          58.6160  159.5011  166.1570 H         3        0    0.0000
     62 H          59.4667  160.5504  163.7236 H         3        0    0.0000
     63 H          58.0129  159.6916  163.2239 H         3        0    0.0000
     64 C          59.5439  158.3949  164.0368 C.3       4        0    0.0000
     65 C          61.0237  158.5083  163.6435 C.3       4        0    0.0000
     66 H          59.4932  158.0235  165.0683 H         4        0    0.0000
     67 H          59.0206  157.6606  163.4133 H         4        0    0.0000
     68 H          61.3636  157.6144  163.1075 H         4        0    0.0000
     69 H          61.1273  159.3502  162.9471 H         4        0    0.0000
     70 C          59.3503  158.3958  166.7695 C.3       5        0    0.0000
     71 C          59.7701  159.5421  165.8454 C.3       5        0    0.0000
     72 C          61.2966  159.6425  165.9395 C.3       5        0    0.0000
     73 C          61.9830  158.7978  164.8496 C.3       5        0    0.0000
     74 C          61.5620  159.1664  167.3734 C.3       5        0    0.0000
     75 C          60.6009  157.9908  167.5674 C.3       5        0    0.0000
     76 C          60.3398  157.6893  169.0475 C.3       5        0    0.0000
     77 H          58.5291  158.7241  167.4167 H         5        0    0.0000
     78 H          58.9824  157.5447  166.1851 H         5        0    0.0000
     79 H          59.3226  160.4743  166.2129 H         5        0    0.0000
     80 H          59.4093  159.3955  164.8223 H         5        0    0.0000
     81 H          61.6080  160.6890  165.8277 H         5        0    0.0000
     82 H          62.2937  157.8380  165.2799 H         5        0    0.0000
     83 H          62.8931  159.2851  164.4836 H         5        0    0.0000
     84 H          61.3202  159.9752  168.0753 H         5        0    0.0000
     85 H          62.6017  158.8768  167.5532 H         5        0    0.0000
     86 H          61.0407  157.1017  167.0939 H         5        0    0.0000
     87 H          60.9534  156.8433  169.3783 H         5        0    0.0000
     88 H          59.2924  157.3933  169.1794 H         5        0    0.0000
     89 C          64.2803  159.5679  170.6332 C.3       6        0    0.0000
     90 C          63.1680  158.9509  169.7812 C.3       6        0    0.0000
     91 C          61.9526  158.7977  170.7050 C.3       6        0    0.0000
     92 C          60.6272  158.9243  169.9489 C.3       6        0    0.0000
     93 C          62.1860  159.8753  171.7692 C.3       6        0    0.0000
     94 C          63.6906  159.7619  172.0363 C.3       6        0    0.0000
     95 C          64.3018  160.9628  172.7636 C.3       6        0    0.0000
     96 H          65.1649  158.9228  170.6647 H         6        0    0.0000
     97 H          64.5903  160.5231  170.1926 H         6        0    0.0000
     98 H          63.4711  157.9831  169.3673 H         6        0    0.0000
     99 H          62.9477  159.6117  168.9343 H         6        0    0.0000
    100 H          62.0106  157.8107  171.1867 H         6        0    0.0000
    101 H          60.6557  159.8191  169.3156 H         6        0    0.0000
    102 H          59.7989  159.0622  170.6537 H         6        0    0.0000
    103 H          61.5953  159.6927  172.6725 H         6        0    0.0000
    104 H          61.9293  160.8701  171.3839 H         6        0    0.0000
    105 H          63.8759  158.8455  172.6155 H         6        0    0.0000
    106 H          64.9497  161.5292  172.0845 H         6        0    0.0000
    107 H          64.9377  160.6049  173.5822 H         6        0    0.0000
    108 C          63.2205  161.9082  173.3553 C.3       7        0    0.0000
    109 C          63.7910  163.0599  174.1953 C.3       7        0    0.0000
    110 H          62.6798  162.3426  172.5047 H         7        0    0.0000
    111 H          62.4897  161.3227  173.9253 H         7        0    0.0000
    112 H          64.4520  162.6871  174.9866 H         7        0    0.0000
    113 H          64.4091  163.6862  173.5393 H         7        0    0.0000
    114 C          62.6983  163.9967  174.8174 C.3       8        0    0.0000
    115 C          63.2324  164.9443  175.9011 C.3       8        0    0.0000
    116 H          61.9455  163.3437  175.2772 H         8        0    0.0000
    117 H          62.1883  164.5498  174.0200 H         8        0    0.0000
    118 H          63.8508  164.3572  176.5920 H         8        0    0.0000
    119 H          63.8856  165.7131  175.4720 H         8        0    0.0000
    120 C          62.1118  165.6236  176.7622 C.3       9        0    0.0000
    121 C          62.6146  166.2124  178.0880 C.3       9        0    0.0000
    122 H          61.7021  166.4438  176.1589 H         9        0    0.0000
    123 H          61.2914  164.9151  176.9261 H         9        0    0.0000
    124 H          63.6902  166.4212  178.0493 H         9        0    0.0000
    125 H          62.1133  167.1762  178.2443 H         9        0    0.0000
    126 C          62.2931  165.3266  179.3412 C.3      10        0    0.0000
    127 C          62.9439  165.8236  180.6400 C.3      10        0    0.0000
    128 H          62.6823  164.3228  179.1279 H        10        0    0.0000
    129 H          61.2073  165.2246  179.4528 H        10        0    0.0000
    130 H          63.9240  165.3392  180.7367 H        10        0    0.0000
    131 H          63.1300  166.9034  180.6051 H        10        0    0.0000
    132 C          63.6117  165.8384  185.4167 C.3      11        0    0.0000
    133 C          63.5638  165.1335  184.0683 C.3      11        0    0.0000
    134 C          62.7038  166.0763  183.2202 C.3      11        0    0.0000
    135 C          62.1339  165.4687  181.9349 C.3      11        0    0.0000
    136 C          61.6647  166.6645  184.1948 C.3      11        0    0.0000
    137 C          62.1661  166.3087  185.6081 C.3      11        0    0.0000
    138 C          61.9622  167.3906  186.6729 C.3      11        0    0.0000
    139 H          63.9352  165.1667  186.2179 H        11        0    0.0000
    140 H          64.3153  166.6770  185.3711 H        11        0    0.0000
    141 H          64.5630  164.9947  183.6438 H        11        0    0.0000
    142 H          63.1028  164.1463  184.1830 H        11        0    0.0000
    143 H          63.3535  166.9089  182.9109 H        11        0    0.0000
    144 H          62.0980  164.3778  182.0399 H        11        0    0.0000
    145 H          61.0989  165.8071  181.8067 H        11        0    0.0000
    146 H          60.6612  166.2510  184.0475 H        11        0    0.0000
    147 H          61.5806  167.7444  184.0322 H        11        0    0.0000
    148 H          61.5869  165.4329  185.9376 H        11        0    0.0000
    149 H          61.1101  168.0186  186.3867 H        11        0    0.0000
    150 H          61.6961  166.9127  187.6232 H        11        0    0.0000
    151 C          66.7265  167.1167  186.2699 C.3      12        0    0.0000
    152 C          65.2466  167.1787  185.8829 C.3      12        0    0.0000
    153 C          64.4777  167.5003  187.1712 C.3      12        0    0.0000
    154 C          63.2029  168.3049  186.9027 C.3      12        0    0.0000
    155 C          65.5213  168.2246  188.0280 C.3      12        0    0.0000
    156 C          66.7902  167.4034  187.7759 C.3      12        0    0.0000
    157 C          68.0921  168.1000  188.1812 C.3      12        0    0.0000
    158 H          67.1602  166.1381  186.0377 H        12        0    0.0000
    159 H          67.2857  167.8646  185.6950 H        12        0    0.0000
    160 H          64.9065  166.2325  185.4485 H        12        0    0.0000
    161 H          65.1001  167.9561  185.1235 H        12        0    0.0000
    162 H          64.2189  166.5507  187.6619 H        12        0    0.0000
    163 H          63.3481  168.9262  186.0108 H        12        0    0.0000
    164 H          63.0027  168.9893  187.7354 H        12        0    0.0000
    165 H          65.2448  168.2354  189.0871 H        12        0    0.0000
    166 H          65.6519  169.2618  187.6947 H        12        0    0.0000
    167 H          66.7008  166.4467  188.3109 H        12        0    0.0000
    168 H          67.9424  169.1847  188.2344 H        12        0    0.0000
    169 H          68.8522  167.9233  187.4108 H        12        0    0.0000
    170 C          68.6387  167.5861  189.5414 C.3      13        0    0.0000
    171 C          70.0892  167.0862  189.4821 C.3      13        0    0.0000
    172 H          68.5984  168.4324  190.2391 H        13        0    0.0000
    173 H          67.9679  166.8172  189.9423 H        13        0    0.0000
    174 H          70.5321  167.2632  188.4949 H        13        0    0.0000
    175 H          70.6799  167.6694  190.2001 H        13        0    0.0000
    176 C          68.5226  163.0791  187.8228 C.3      14        0    0.0000
    177 C          68.8179  164.5640  188.0287 C.3      14        0    0.0000
    178 C          70.2218  164.6522  188.6519 C.3      14        0    0.0000
    179 C          70.2598  165.5779  189.8750 C.3      14        0    0.0000
    180 C          70.6067  163.1963  188.9563 C.3      14        0    0.0000
    181 C          69.8748  162.3649  187.8951 C.3      14        0    0.0000
    182 C          70.5766  162.3321  186.5251 C.3      14        0    0.0000
    183 H          67.8841  162.7273  188.6432 H        14        0    0.0000
    184 H          67.9820  162.8925  186.8896 H        14        0    0.0000
    185 H          68.0444  165.0243  188.6531 H        14        0    0.0000
    186 H          68.8093  165.0890  187.0662 H        14        0    0.0000
    187 H          70.9066  165.0429  187.8859 H        14        0    0.0000
    188 H          71.1984  165.4437  190.4251 H        14        0    0.0000
    189 H          69.4490  165.3048  190.5610 H        14        0    0.0000
    190 H          71.6908  163.0477  188.9461 H        14        0    0.0000
    191 H          70.2447  162.9067  189.9515 H        14        0    0.0000
    192 H          69.7313  161.3372  188.2524 H        14        0    0.0000
    193 H          70.7150  163.3424  186.1252 H        14        0    0.0000
    194 H          69.9435  161.7955  185.8081 H        14        0    0.0000
    195 C          71.9504  161.6067  186.5901 C.3      15        0    0.0000
    196 C          73.1198  162.4345  186.0380 C.3      15        0    0.0000
    197 H          72.1498  161.4000  187.6494 H        15        0    0.0000
    198 H          71.8787  160.6341  186.0892 H        15        0    0.0000
    199 H          73.0346  162.5714  184.9536 H        15        0    0.0000
    200 H          73.0696  163.4354  186.4855 H        15        0    0.0000
    201 C          74.7514  159.4848  189.1837 C.3      16        0    0.0000
    202 C          73.8298  160.3582  188.3338 C.3      16        0    0.0000
    203 C          74.4527  160.4191  186.9283 C.3      16        0    0.0000
    204 C          74.5333  161.8527  186.3876 C.3      16        0    0.0000
    205 C          75.8169  159.7276  187.0748 C.3      16        0    0.0000
    206 C          75.6196  158.7002  188.1967 C.3      16        0    0.0000
    207 C          74.9349  157.3972  187.7453 C.3      16        0    0.0000
    208 H          75.3935  160.1341  189.7926 H        16        0    0.0000
    209 H          74.1916  158.8453  189.8735 H        16        0    0.0000
    210 H          73.7116  161.3466  188.7910 H        16        0    0.0000
    211 H          72.8312  159.9095  188.2742 H        16        0    0.0000
    212 H          73.8254  159.8175  186.2554 H        16        0    0.0000
    213 H          75.1772  161.8900  185.5013 H        16        0    0.0000
    214 H          74.9966  162.4989  187.1429 H        16        0    0.0000
    215 H          76.1524  159.2784  186.1350 H        16        0    0.0000
    216 H          76.5806  160.4534  187.3832 H        16        0    0.0000
    217 H          76.5835  158.4593  188.6628 H        16        0    0.0000
    218 H          73.9039  157.5806  187.4241 H        16        0    0.0000
    219 H          74.8799  156.7055  188.5947 H        16        0    0.0000
    220 C          78.6547  158.9599  187.2785 C.3      17        0    0.0000
    221 C          77.1694  158.7513  186.9715 C.3      17        0    0.0000
    222 C          77.0566  157.3734  186.3060 C.3      17        0    0.0000
    223 C          75.7175  156.6922  186.6014 C.3      17        0    0.0000
    224 C          78.2840  156.6273  186.8398 C.3      17        0    0.0000
    225 C          79.3775  157.6994  186.7856 C.3      17        0    0.0000
    226 C          80.6244  157.3815  187.6155 C.3      17        0    0.0000
    227 H          79.0440  159.8553  186.7821 H        17        0    0.0000
    228 H          78.7878  159.1028  188.3575 H        17        0    0.0000
    229 H          76.7822  159.5376  186.3145 H        17        0    0.0000
    230 H          76.5943  158.7948  187.9041 H        17        0    0.0000
    231 H          77.1719  157.5067  185.2204 H        17        0    0.0000
    232 H          75.8978  155.6505  186.8928 H        17        0    0.0000
    233 H          75.0973  156.6649  185.6979 H        17        0    0.0000
    234 H          78.5334  155.7573  186.2242 H        17        0    0.0000
    235 H          78.1192  156.2859  187.8694 H        17        0    0.0000
    236 H          79.6628  157.8567  185.7352 H        17        0    0.0000
    237 H          80.3881  156.6407  188.3883 H        17        0    0.0000
    238 H          80.9531  158.2885  188.1370 H        17        0    0.0000
    239 C          84.1377  159.3973  185.3752 C.3      18        0    0.0000
    240 C          82.9119  159.1366  186.2541 C.3      18        0    0.0000
    241 C          82.2181  157.8873  185.6824 C.3      18        0    0.0000
    242 C          81.7987  156.8609  186.7421 C.3      18        0    0.0000
    243 C          83.2271  157.3141  184.6821 C.3      18        0    0.0000
    244 C          83.9506  158.5414  184.1177 C.3      18        0    0.0000
    245 C          83.1359  159.2499  183.0189 C.3      18        0    0.0000
    246 H          84.2711  160.4633  185.1680 H        18        0    0.0000
    247 H          85.0343  159.0590  185.9103 H        18        0    0.0000
    248 H          83.2190  159.0125  187.2984 H        18        0    0.0000
    249 H          82.2273  159.9921  186.2174 H        18        0    0.0000
    250 H          81.3294  158.2121  185.1225 H        18        0    0.0000
    251 H          81.4801  155.9364  186.2460 H        18        0    0.0000
    252 H          82.6501  156.6012  187.3817 H        18        0    0.0000
    253 H          82.7401  156.7137  183.9068 H        18        0    0.0000
    254 H          83.9500  156.6678  185.1966 H        18        0    0.0000
    255 H          84.9251  158.2402  183.7130 H        18        0    0.0000
    256 H          83.6746  160.1189  182.6250 H        18        0    0.0000
    257 H          82.1973  159.6234  183.4454 H        18        0    0.0000
    258 C          85.2729  155.9412  183.2919 C.3      19        0    0.0000
    259 C          84.8805  156.7995  182.0868 C.3      19        0    0.0000
    260 C          83.3433  156.8776  182.0839 C.3      19        0    0.0000
    261 C          82.7860  158.2868  181.8476 C.3      19        0    0.0000
    262 C          82.9293  156.3071  183.4442 C.3      19        0    0.0000
    263 C          83.9889  155.2447  183.7555 C.3      19        0    0.0000
    264 C          83.7221  153.9164  183.0223 C.3      19        0    0.0000
    265 H          86.0878  155.2514  183.0526 H        19        0    0.0000
    266 H          85.6337  156.6000  184.0921 H        19        0    0.0000
    267 H          85.3566  157.7838  182.1567 H        19        0    0.0000
    268 H          85.2311  156.3354  181.1575 H        19        0    0.0000
    269 H          82.9651  156.2038  181.3018 H        19        0    0.0000
    270 H          83.2109  158.6949  180.9228 H        19        0    0.0000
    271 H          81.6993  158.2506  181.7091 H        19        0    0.0000
    272 H          81.9126  155.9012  183.4265 H        19        0    0.0000
    273 H          82.9601  157.0906  184.2124 H        19        0    0.0000
    274 H          84.0223  155.0643  184.8375 H        19        0    0.0000
    275 H          83.1483  154.0799  182.1034 H        19        0    0.0000
    276 H          83.1186  153.2621  183.6626 H        19        0    0.0000
    277 C          85.0442  153.1711  182.6779 C.3      20        0    0.0000
    278 C          85.2395  152.9080  181.1779 C.3      20        0    0.0000
    279 H          85.8672  153.8108  183.0214 H        20        0    0.0000
    280 H          85.1065  152.2424  183.2572 H        20        0    0.0000
    281 H          84.8193  151.9388  180.8849 H        20        0    0.0000
    282 H          84.6814  153.6727  180.6227 H        20        0    0.0000
    283 C          88.0766  153.1950  184.1130 C.3      21        0    0.0000
    284 C          87.0842  152.5011  183.1813 C.3      21        0    0.0000
    285 C          87.7130  152.5159  181.7773 C.3      21        0    0.0000
    286 C          86.7310  153.0025  180.7034 C.3      21        0    0.0000
    287 C          88.9683  153.3904  181.9202 C.3      21        0    0.0000
    288 C          89.4175  153.2003  183.3745 C.3      21        0    0.0000
    289 C          90.2120  151.9055  183.6251 C.3      21        0    0.0000
    290 H          87.7485  154.2300  184.2735 H        21        0    0.0000
    291 H          88.1235  152.7149  185.0955 H        21        0    0.0000
    292 H          86.1110  153.0028  183.2180 H        21        0    0.0000
    293 H          86.9245  151.4648  183.5017 H        21        0    0.0000
    294 H          88.0261  151.4899  181.5374 H        21        0    0.0000
    295 H          86.8614  152.4274  179.7793 H        21        0    0.0000
    296 H          86.9511  154.0486  180.4589 H        21        0    0.0000
    297 H          89.7408  153.1214  181.1932 H        21        0    0.0000
    298 H          88.7172  154.4466  181.7572 H        21        0    0.0000
    299 H          90.0159  154.0604  183.7010 H        21        0    0.0000
    300 H          89.6333  151.0218  183.3353 H        21        0    0.0000
    301 H          90.4149  151.8087  184.6986 H        21        0    0.0000
    302 C          91.5096  153.7231  179.6898 C.3      22        0    0.0000
    303 C          90.7454  153.3810  180.9679 C.3      22        0    0.0000
    304 C          91.7982  153.1908  182.0735 C.3      22        0    0.0000
    305 C          91.5747  151.9023  182.8762 C.3      22        0    0.0000
    306 C          93.1481  153.2464  181.3419 C.3      22        0    0.0000
    307 C          92.9058  154.1639  180.1368 C.3      22        0    0.0000
    308 C          92.9505  155.6666  180.4691 C.3      22        0    0.0000
    309 H          91.5961  152.8179  179.0751 H        22        0    0.0000
    310 H          90.9889  154.4741  179.0875 H        22        0    0.0000
    311 H          90.1228  152.4928  180.8145 H        22        0    0.0000
    312 H          90.0725  154.2032  181.2385 H        22        0    0.0000
    313 H          91.7323  154.0520  182.7534 H        22        0    0.0000
    314 H          92.3899  151.7545  183.5940 H        22        0    0.0000
    315 H          91.5934  151.0434  182.1947 H        22        0    0.0000
    316 H          93.9541  153.5971  181.9939 H        22        0    0.0000
    317 H          93.4277  152.2476  180.9821 H        22        0    0.0000
    318 H          93.6332  153.9472  179.3441 H        22        0    0.0000
    319 H          91.9929  156.0131  180.8723 H        22        0    0.0000
    320 H          93.1263  156.2348  179.5477 H        22        0    0.0000
    321 C          94.6037  152.3359  181.5801 C.3      23        0    0.0000
    322 C          94.0190  153.5626  182.2844 C.3      23        0    0.0000
    323 C          94.8888  154.7635  181.8715 C.3      23        0    0.0000
    324 C          94.0900  156.0096  181.4700 C.3      23        0    0.0000
    325 C          95.7552  154.2315  180.7254 C.3      23        0    0.0000
    326 C          95.9863  152.7561  181.0693 C.3      23        0    0.0000
    327 C          97.1018  152.5642  182.1142 C.3      23        0    0.0000
    328 H          94.6226  151.4602  182.2357 H        23        0    0.0000
    329 H          93.9656  152.0827  180.7237 H        23        0    0.0000
    330 H          92.9655  153.6857  182.0099 H        23        0    0.0000
    331 H          94.0571  153.4322  183.3722 H        23        0    0.0000
    332 H          95.5515  155.0146  182.7121 H        23        0    0.0000
    333 H          93.6434  156.4588  182.3651 H        23        0    0.0000
    334 H          94.7530  156.7650  181.0326 H        23        0    0.0000
    335 H          96.6881  154.7949  180.6209 H        23        0    0.0000
    336 H          95.2151  154.3047  179.7725 H        23        0    0.0000
    337 H          96.2407  152.2012  180.1573 H        23        0    0.0000
    338 H          96.6923  152.5388  183.1301 H        23        0    0.0000
    339 H          97.7920  153.4150  182.0701 H        23        0    0.0000
    340 C          99.1441  152.2137  178.3857 C.3      24        0    0.0000
    341 C          98.8571  152.5839  179.8341 C.3      24        0    0.0000
    342 C          98.6187  151.2219  180.4942 C.3      24        0    0.0000
    343 C          97.9180  151.2646  181.8556 C.3      24        0    0.0000
    344 C          97.9259  150.3646  179.4169 C.3      24        0    0.0000
    345 C          98.0940  151.1368  178.0937 C.3      24        0    0.0000
    346 C          98.3623  150.2754  176.8559 C.3      24        0    0.0000
    347 H          99.0474  153.0745  177.7168 H        24        0    0.0000
    348 H         100.1657  151.8277  178.2979 H        24        0    0.0000
    349 H          99.6929  153.1221  180.2918 H        24        0    0.0000
    350 H          97.9710  153.2264  179.8832 H        24        0    0.0000
    351 H          99.6088  150.7733  180.6663 H        24        0    0.0000
    352 H          97.2447  150.4033  181.9388 H        24        0    0.0000
    353 H          98.6678  151.1561  182.6481 H        24        0    0.0000
    354 H          96.8603  150.2090  179.6170 H        24        0    0.0000
    355 H          98.3836  149.3698  179.3904 H        24        0    0.0000
    356 H          97.1433  151.6599  177.9102 H        24        0    0.0000
    357 H          98.9541  150.8552  176.1376 H        24        0    0.0000
    358 H          98.9746  149.4131  177.1452 H        24        0    0.0000
    359 C          97.1532  151.1503  172.6371 C.3      25        0    0.0000
    360 C          97.8484  150.6573  173.8970 C.3      25        0    0.0000
    361 C          96.7086  150.5967  174.9160 C.3      25        0    0.0000
    362 C          97.0760  149.7595  176.1436 C.3      25        0    0.0000
    363 C          95.5181  150.0578  174.1018 C.3      25        0    0.0000
    364 C          95.8359  150.3644  172.6238 C.3      25        0    0.0000
    365 C          94.6960  151.0099  171.8257 C.3      25        0    0.0000
    366 H          97.7511  150.9613  171.7400 H        25        0    0.0000
    367 H          96.9889  152.2309  172.7086 H        25        0    0.0000
    368 H          98.2814  149.6639  173.7278 H        25        0    0.0000
    369 H          98.6504  151.3315  174.2127 H        25        0    0.0000
    370 H          96.4726  151.6239  175.2300 H        25        0    0.0000
    371 H          96.2451  149.7525  176.8591 H        25        0    0.0000
    372 H          97.2364  148.7188  175.8376 H        25        0    0.0000
    373 H          95.4109  148.9730  174.2262 H        25        0    0.0000
    374 H          94.5807  150.5099  174.4424 H        25        0    0.0000
    375 H          96.0433  149.3979  172.1406 H        25        0    0.0000
    376 H          94.7444  152.0984  171.9484 H        25        0    0.0000
    377 H          93.7377  150.6884  172.2506 H        25        0    0.0000
    378 C          98.3113  150.4386  169.4645 C.3      26        0    0.0000
    379 C          97.2621  150.9903  170.4329 C.3      26        0    0.0000
    380 C          95.9728  151.1919  169.6167 C.3      26        0    0.0000
    381 C          94.7047  150.6741  170.3066 C.3      26        0    0.0000
    382 C          96.2464  150.4796  168.2881 C.3      26        0    0.0000
    383 C          97.7502  150.6610  168.0558 C.3      26        0    0.0000
    384 C          98.0927  152.0481  167.4798 C.3      26        0    0.0000
    385 H          99.2933  150.8933  169.6256 H        26        0    0.0000
    386 H          98.4230  149.3611  169.6412 H        26        0    0.0000
    387 H          97.1297  150.3014  171.2744 H        26        0    0.0000
    388 H          97.5932  151.9492  170.8483 H        26        0    0.0000
    389 H          95.8591  152.2659  169.4110 H        26        0    0.0000
    390 H          93.8247  151.1359  169.8431 H        26        0    0.0000
    391 H          94.6068  149.5916  170.1655 H        26        0    0.0000
    392 H          95.6383  150.8847  167.4728 H        26        0    0.0000
    393 H          96.0159  149.4098  168.3737 H        26        0    0.0000
    394 H          98.1136  149.8822  167.3733 H        26        0    0.0000
    395 H          98.9916  152.4612  167.9505 H        26        0    0.0000
    396 H          97.2725  152.7436  167.6940 H        26        0    0.0000
    397 C          98.2954  151.9990  165.9376 C.3      27        0    0.0000
    398 C          99.6707  152.4991  165.4729 C.3      27        0    0.0000
    399 H          98.1966  150.9476  165.6383 H        27        0    0.0000
    400 H          97.4841  152.5438  165.4407 H        27        0    0.0000
    401 H          99.6538  153.5750  165.2630 H        27        0    0.0000
    402 H         100.3825  152.3510  166.2952 H        27        0    0.0000
    403 C         103.9797  152.0599  163.6998 C.3      28        0    0.0000
    404 C         102.7882  152.0005  164.6434 C.3      28        0    0.0000
    405 C         101.5888  152.2600  163.7230 C.3      28        0    0.0000
    406 C         100.2438  151.7279  164.2338 C.3      28        0    0.0000
    407 C         102.0149  151.7533  162.3297 C.3      28        0    0.0000
    408 C         103.4801  151.3011  162.4687 C.3      28        0    0.0000
    409 C         104.3504  151.5627  161.2370 C.3      28        0    0.0000
    410 H         104.2172  153.1020  163.4532 H        28        0    0.0000
    411 H         104.8712  151.5993  164.1363 H        28        0    0.0000
    412 H         102.7422  151.0121  165.1133 H        28        0    0.0000
    413 H         102.8608  152.7470  165.4406 H        28        0    0.0000
    414 H         101.4782  153.3515  163.6395 H        28        0    0.0000
    415 H          99.5100  151.7763  163.4204 H        28        0    0.0000
    416 H         100.3535  150.6687  164.4951 H        28        0    0.0000
    417 H         101.9196  152.5735  161.6073 H        28        0    0.0000
    418 H         101.3903  150.9326  161.9615 H        28        0    0.0000
    419 H         103.4867  150.2261  162.7007 H        28        0    0.0000
    420 H         105.0215  152.4100  161.4211 H        28        0    0.0000
    421 H         104.9885  150.6903  161.0524 H        28        0    0.0000
    422 C          99.8300  151.0392  160.4751 C.3      29        0    0.0000
    423 C         101.2993  150.7300  160.7264 C.3      29        0    0.0000
    424 C         102.0057  151.9909  160.2178 C.3      29        0    0.0000
    425 C         103.5086  151.8442  159.9608 C.3      29        0    0.0000
    426 C         101.1692  152.4671  159.0141 C.3      29        0    0.0000
    427 C          99.8484  151.6756  159.0814 C.3      29        0    0.0000
    428 C          98.5888  152.4593  158.6999 C.3      29        0    0.0000
    429 H          99.2111  150.1371  160.5071 H        29        0    0.0000
    430 H          99.4616  151.7319  161.2397 H        29        0    0.0000
    431 H         101.5024  150.5437  161.7856 H        29        0    0.0000
    432 H         101.5915  149.8377  160.1619 H        29        0    0.0000
    433 H         101.8959  152.7560  161.0012 H        29        0    0.0000
    434 H         103.6715  151.0300  159.2447 H        29        0    0.0000
    435 H         103.8823  152.7597  159.4873 H        29        0    0.0000
    436 H         101.6602  152.2787  158.0532 H        29        0    0.0000
    437 H         101.0201  153.5503  159.0775 H        29        0    0.0000
    438 H          99.9359  150.8526  158.3561 H        29        0    0.0000
    439 H          97.8651  151.7737  158.2434 H        29        0    0.0000
    440 H          98.1206  152.8508  159.6108 H        29        0    0.0000
    441 C         102.0864  152.9590  155.9162 C.3      30        0    0.0000
    442 C         100.8049  152.4918  156.5893 C.3      30        0    0.0000
    443 C         100.3119  153.7534  157.3009 C.3      30        0    0.0000
    444 C          98.8437  153.6434  157.7196 C.3      30        0    0.0000
    445 C         100.6123  154.8812  156.2966 C.3      30        0    0.0000
    446 C         101.7184  154.3427  155.3659 C.3      30        0    0.0000
    447 C         102.9015  155.2908  155.1325 C.3      30        0    0.0000
    448 H         102.4042  152.2749  155.1232 H        30        0    0.0000
    449 H         102.8915  153.0099  156.6573 H        30        0    0.0000
    450 H         100.0822  152.1538  155.8366 H        30        0    0.0000
    451 H         100.9851  151.6674  157.2859 H        30        0    0.0000
    452 H         100.9364  153.9124  158.1920 H        30        0    0.0000
    453 H          98.5130  154.5779  158.1883 H        30        0    0.0000
    454 H          98.2221  153.5019  156.8275 H        30        0    0.0000
    455 H          99.7270  155.1236  155.6956 H        30        0    0.0000
    456 H         100.9006  155.7986  156.8204 H        30        0    0.0000
    457 H         101.2509  154.1834  154.3827 H        30        0    0.0000
    458 H         103.6621  154.7743  154.5351 H        30        0    0.0000
    459 H         103.3658  155.5246  156.0980 H        30        0    0.0000
    460 C          98.8625  157.5621  154.6509 C.3      31        0    0.0000
    461 C         100.0822  156.8777  155.2488 C.3      31        0    0.0000
    462 C         101.0419  156.7517  154.0588 C.3      31        0    0.0000
    463 C         102.5262  156.6245  154.4248 C.3      31        0    0.0000
    464 C         100.6908  157.9197  153.1143 C.3      31        0    0.0000
    465 C          99.4786  158.6297  153.7443 C.3      31        0    0.0000
    466 C          98.4679  159.1854  152.7380 C.3      31        0    0.0000
    467 H          98.2704  156.8438  154.0708 H        31        0    0.0000
    468 H          98.2172  157.9954  155.4212 H        31        0    0.0000
    469 H         100.4960  157.5008  156.0491 H        31        0    0.0000
    470 H          99.8337  155.9023  155.6787 H        31        0    0.0000
    471 H         100.7740  155.8267  153.5267 H        31        0    0.0000
    472 H         103.1269  156.7186  153.5122 H        31        0    0.0000
    473 H         102.8081  157.4620  155.0740 H        31        0    0.0000
    474 H         100.4440  157.5162  152.1244 H        31        0    0.0000
    475 H         101.5193  158.6217  152.9728 H        31        0    0.0000
    476 H          99.8513  159.4469  154.3789 H        31        0    0.0000
    477 H          97.5462  158.5919  152.7606 H        31        0    0.0000
    478 H          98.1920  160.2062  153.0278 H        31        0    0.0000
    479 C          99.0244  159.2119  151.2867 C.3      32        0    0.0000
    480 C          98.7799  157.9156  150.5010 C.3      32        0    0.0000
    481 H          98.5094  160.0286  150.7648 H        32        0    0.0000
    482 H         100.0890  159.4731  151.3040 H        32        0    0.0000
    483 H          97.9934  157.3097  150.9660 H        32        0    0.0000
    484 H          98.4174  158.1867  149.5012 H        32        0    0.0000
    485 C         102.6609  157.3938  147.7222 C.3      33        0    0.0000
    486 C         101.2247  157.7250  148.1247 C.3      33        0    0.0000
    487 C         101.2123  157.8412  149.6587 C.3      33        0    0.0000
    488 C         100.0665  157.0432  150.2949 C.3      33        0    0.0000
    489 C         102.6122  157.3842  150.0969 C.3      33        0    0.0000
    490 C         103.5323  157.7565  148.9274 C.3      33        0    0.0000
    491 C         103.9527  159.2375  148.9025 C.3      33        0    0.0000
    492 H         102.7368  156.3154  147.5332 H        33        0    0.0000
    493 H         102.9586  157.9050  146.8013 H        33        0    0.0000
    494 H         100.5367  156.9595  147.7494 H        33        0    0.0000
    495 H         100.9174  158.6794  147.6812 H        33        0    0.0000
    496 H         101.0942  158.9035  149.9153 H        33        0    0.0000
    497 H         100.3838  156.6209  151.2554 H        33        0    0.0000
    498 H          99.8108  156.1969  149.6460 H        33        0    0.0000
    499 H         102.9151  157.8407  151.0443 H        33        0    0.0000
    500 H         102.6312  156.2953  150.2359 H        33        0    0.0000
    501 H         104.4305  157.1259  148.9372 H        33        0    0.0000
    502 H         103.9723  159.6621  149.9119 H        33        0    0.0000
    503 H         103.2119  159.8133  148.3347 H        33        0    0.0000
    504 C         106.0837  158.1511  144.7601 C.3      34        0    0.0000
    505 C         105.4179  159.1382  145.7066 C.3      34        0    0.0000
    506 C         105.5766  158.4648  147.0713 C.3      34        0    0.0000
    507 C         105.3387  159.4397  148.2271 C.3      34        0    0.0000
    508 C         106.9920  157.8610  147.0191 C.3      34        0    0.0000
    509 C         107.3404  157.7143  145.5236 C.3      34        0    0.0000
    510 C         107.9169  156.3535  145.1125 C.3      34        0    0.0000
    511 H         106.3292  158.6103  143.7974 H        34        0    0.0000
    512 H         105.4048  157.3132  144.5681 H        34        0    0.0000
    513 H         105.9396  160.1026  145.6781 H        34        0    0.0000
    514 H         104.3682  159.3087  145.4488 H        34        0    0.0000
    515 H         104.8533  157.6387  147.1337 H        34        0    0.0000
    516 H         106.1272  159.3317  148.9814 H        34        0    0.0000
    517 H         105.4008  160.4682  147.8522 H        34        0    0.0000
    518 H         107.7248  158.5261  147.4927 H        34        0    0.0000
    519 H         107.0275  156.9115  147.5636 H        34        0    0.0000
    520 H         108.1215  158.4589  145.3091 H        34        0    0.0000
    521 H         107.1007  155.6245  145.0448 H        34        0    0.0000
    522 H         108.5899  155.9990  145.9023 H        34        0    0.0000
    523 C         107.5199  153.5755  141.5141 C.3      35        0    0.0000
    524 C         107.3455  154.4563  142.7541 C.3      35        0    0.0000
    525 C         108.7423  154.9832  143.1079 C.3      35        0    0.0000
    526 C         108.6938  156.3656  143.7646 C.3      35        0    0.0000
    527 C         109.4812  154.9393  141.7662 C.3      35        0    0.0000
    528 C         109.0148  153.6069  141.1703 C.3      35        0    0.0000
    529 C         109.2699  153.4557  139.6681 C.3      35        0    0.0000
    530 H         107.1811  152.5506  141.7003 H        35        0    0.0000
    531 H         106.9111  153.9749  140.6941 H        35        0    0.0000
    532 H         106.9156  153.8919  143.5886 H        35        0    0.0000
    533 H         106.6535  155.2756  142.5254 H        35        0    0.0000
    534 H         109.2161  154.2650  143.7929 H        35        0    0.0000
    535 H         108.2023  157.0721  143.0851 H        35        0    0.0000
    536 H         109.7094  156.7428  143.9323 H        35        0    0.0000
    537 H         110.5676  154.9711  141.8964 H        35        0    0.0000
    538 H         109.1853  155.7806  141.1270 H        35        0    0.0000
    539 H         109.5086  152.7878  141.7134 H        35        0    0.0000
    540 H         110.3107  153.7064  139.4320 H        35        0    0.0000
    541 H         108.6411  154.1680  139.1207 H        35        0    0.0000
    542 C         108.1251  150.0205  142.2781 C.3      36        0    0.0000
    543 C         108.6977  151.2685  141.6207 C.3      36        0    0.0000
    544 C         108.2209  151.1400  140.1703 C.3      36        0    0.0000
    545 C         108.9544  152.0234  139.1564 C.3      36        0    0.0000
    546 C         108.2382  149.6285  139.8698 C.3      36        0    0.0000
    547 C         108.3942  148.9308  141.2352 C.3      36        0    0.0000
    548 C         107.5909  147.6387  141.4121 C.3      36        0    0.0000
    549 H         108.6103  149.8031  143.2347 H        36        0    0.0000
    550 H         107.0541  150.1582  142.4634 H        36        0    0.0000
    551 H         108.3316  152.1846  142.0944 H        36        0    0.0000
    552 H         109.7905  151.2589  141.6977 H        36        0    0.0000
    553 H         107.1661  151.4536  140.1524 H        36        0    0.0000
    554 H         109.8943  151.5362  138.8711 H        36        0    0.0000
    555 H         108.3501  152.1003  138.2447 H        36        0    0.0000
    556 H         109.0635  149.3346  139.2122 H        36        0    0.0000
    557 H         107.3152  149.3477  139.3512 H        36        0    0.0000
    558 H         109.4553  148.6544  141.3293 H        36        0    0.0000
    559 H         108.1913  146.9190  141.9812 H        36        0    0.0000
    560 H         106.6992  147.8506  142.0139 H        36        0    0.0000
    561 C         107.9870  148.5976  136.8463 C.3      37        0    0.0000
    562 C         108.1836  148.6016  138.3643 C.3      37        0    0.0000
    563 C         106.8994  148.0138  138.9760 C.3      37        0    0.0000
    564 C         107.1460  146.9731  140.0752 C.3      37        0    0.0000
    565 C         106.1391  147.4307  137.7806 C.3      37        0    0.0000
    566 C         106.4922  148.3553  136.6106 C.3      37        0    0.0000
    567 C         105.6606  149.6520  136.6149 C.3      37        0    0.0000
    568 H         108.3639  149.5150  136.3843 H        37        0    0.0000
    569 H         108.5584  147.7639  136.4184 H        37        0    0.0000
    570 H         109.0807  148.0303  138.6275 H        37        0    0.0000
    571 H         108.3337  149.6253  138.7268 H        37        0    0.0000
    572 H         106.3040  148.8408  139.3887 H        37        0    0.0000
    573 H         106.2223  146.4109  140.2570 H        37        0    0.0000
    574 H         107.9014  146.2472  139.7528 H        37        0    0.0000
    575 H         105.0618  147.3741  137.9677 H        37        0    0.0000
    576 H         106.4915  146.4141  137.5627 H        37        0    0.0000
    577 H         106.3367  147.8249  135.6626 H        37        0    0.0000
    578 H         105.8072  150.2192  135.6891 H        37        0    0.0000
    579 H         105.9932  150.2950  137.4385 H        37        0    0.0000
    580 C         103.1693  146.0121  138.2791 C.3      38        0    0.0000
    581 C         104.1116  147.2054  138.2407 C.3      38        0    0.0000
    582 C         103.7874  147.8752  136.8993 C.3      38        0    0.0000
    583 C         104.1433  149.3645  136.8077 C.3      38        0    0.0000
    584 C         102.3136  147.5276  136.6050 C.3      38        0    0.0000
    585 C         101.8598  146.5919  137.7404 C.3      38        0    0.0000
    586 C         100.8765  145.4988  137.3148 C.3      38        0    0.0000
    587 H         103.5442  145.2112  137.6301 H        38        0    0.0000
    588 H         103.0586  145.6099  139.2907 H        38        0    0.0000
    589 H         103.9042  147.8632  139.0916 H        38        0    0.0000
    590 H         105.1608  146.8996  138.3019 H        38        0    0.0000
    591 H         104.3891  147.3654  136.1320 H        38        0    0.0000
    592 H         103.5926  149.8110  135.9712 H        38        0    0.0000
    593 H         103.7990  149.8717  137.7167 H        38        0    0.0000
    594 H         102.2527  147.0274  135.6304 H        38        0    0.0000
    595 H         101.6670  148.4097  136.5493 H        38        0    0.0000
    596 H         101.4049  147.2069  138.5305 H        38        0    0.0000
    597 H         101.1272  144.5518  137.8074 H        38        0    0.0000
    598 H          99.8675  145.7693  137.6481 H        38        0    0.0000
    599 C          98.0673  143.3664  134.0414 C.3      39        0    0.0000
    600 C          99.2820  143.3940  134.9586 C.3      39        0    0.0000
    601 C          99.4823  144.8911  135.2155 C.3      39        0    0.0000
    602 C         100.8528  145.2846  135.7753 C.3      39        0    0.0000
    603 C          99.0771  145.5861  133.9009 C.3      39        0    0.0000
    604 C          98.3494  144.5141  133.0663 C.3      39        0    0.0000
    605 C          97.1408  145.0084  132.2655 C.3      39        0    0.0000
    606 H          97.9650  142.4057  133.5273 H        39        0    0.0000
    607 H          97.1574  143.5374  134.6272 H        39        0    0.0000
    608 H          99.1076  142.8375  135.8848 H        39        0    0.0000
    609 H         100.1412  142.9447  134.4485 H        39        0    0.0000
    610 H          98.7394  145.1872  135.9715 H        39        0    0.0000
    611 H         101.5817  144.5074  135.5165 H        39        0    0.0000
    612 H         101.1884  146.2067  135.2861 H        39        0    0.0000
    613 H          99.9362  145.9672  133.3384 H        39        0    0.0000
    614 H          98.4455  146.4527  134.1246 H        39        0    0.0000
    615 H          99.0775  144.1372  132.3322 H        39        0    0.0000
    616 H          97.3985  145.9553  131.7763 H        39        0    0.0000
    617 H          96.9222  144.2902  131.4664 H        39        0    0.0000
    618 C          94.4013  146.9492  130.1706 C.3      40        0    0.0000
    619 C          94.8150  147.0635  131.6398 C.3      40        0    0.0000
    620 C          94.6648  145.6584  132.2500 C.3      40        0    0.0000
    621 C          95.8520  145.2189  133.1157 C.3      40        0    0.0000
    622 C          94.4506  144.7389  131.0434 C.3      40        0    0.0000
    623 C          93.6863  145.6006  130.0326 C.3      40        0    0.0000
    624 C          92.1804  145.6789  130.3472 C.3      40        0    0.0000
    625 H          93.7981  147.8038  129.8496 H        40        0    0.0000
    626 H          95.3056  146.9422  129.5486 H        40        0    0.0000
    627 H          95.8368  147.4520  131.7124 H        40        0    0.0000
    628 H          94.1621  147.7695  132.1662 H        40        0    0.0000
    629 H          93.7489  145.6425  132.8580 H        40        0    0.0000
    630 H          96.0549  145.9875  133.8710 H        40        0    0.0000
    631 H          95.6104  144.2972  133.6575 H        40        0    0.0000
    632 H          93.9131  143.8245  131.3149 H        40        0    0.0000
    633 H          95.4159  144.4410  130.6140 H        40        0    0.0000
    634 H          93.8278  145.1957  129.0225 H        40        0    0.0000
    635 H          91.6981  146.4808  129.7773 H        40        0    0.0000
    636 H          92.0423  145.9152  131.4090 H        40        0    0.0000
    637 C          92.2802  140.8176  129.1902 C.3      41        0    0.0000
    638 C          91.9629  141.8148  130.3072 C.3      41        0    0.0000
    639 C          92.4556  143.1902  129.8224 C.3      41        0    0.0000
    640 C          91.4581  144.3321  130.0531 C.3      41        0    0.0000
    641 C          92.7704  142.9815  128.3377 C.3      41        0    0.0000
    642 C          93.2547  141.5305  128.2462 C.3      41        0    0.0000
    643 C          94.7284  141.3753  128.6674 C.3      41        0    0.0000
    644 H          92.6609  139.8710  129.5852 H        41        0    0.0000
    645 H          91.3544  140.5900  128.6464 H        41        0    0.0000
    646 H          90.8900  141.8008  130.5285 H        41        0    0.0000
    647 H          92.4873  141.5353  131.2284 H        41        0    0.0000
    648 H          93.3965  143.4221  130.3415 H        41        0    0.0000
    649 H          90.8374  144.4584  129.1580 H        41        0    0.0000
    650 H          90.7796  144.0871  130.8782 H        41        0    0.0000
    651 H          93.5099  143.7005  127.9703 H        41        0    0.0000
    652 H          91.8618  143.1026  127.7338 H        41        0    0.0000
    653 H          93.1279  141.1642  127.2196 H        41        0    0.0000
    654 H          94.9130  140.3880  129.1052 H        41        0    0.0000
    655 H          94.9658  142.1159  129.4404 H        41        0    0.0000
    656 C          92.8316  143.3366  125.9760 C.3      42        0    0.0000
    657 C          93.9661  143.4118  126.9967 C.3      42        0    0.0000
    658 C          95.1238  142.5703  126.4322 C.3      42        0    0.0000
    659 C          95.6977  141.5971  127.4703 C.3      42        0    0.0000
    660 C          94.5385  141.8849  125.1879 C.3      42        0    0.0000
    661 C          93.4688  142.8548  124.6701 C.3      42        0    0.0000
    662 C          94.0275  144.0262  123.8417 C.3      42        0    0.0000
    663 H          92.0978  142.5943  126.3152 H        42        0    0.0000
    664 H          92.3040  144.2903  125.8761 H        42        0    0.0000
    665 H          93.6225  143.0617  127.9762 H        42        0    0.0000
    666 H          94.2940  144.4504  127.1228 H        42        0    0.0000
    667 H          95.9170  143.2604  126.1116 H        42        0    0.0000
    668 H          96.6636  141.9604  127.8400 H        42        0    0.0000
    669 H          95.8858  140.6279  126.9928 H        42        0    0.0000
    670 H          95.3084  141.6574  124.4442 H        42        0    0.0000
    671 H          94.0593  140.9369  125.4652 H        42        0    0.0000
    672 H          92.7239  142.3130  124.0733 H        42        0    0.0000
    673 H          95.0813  144.2116  124.0760 H        42        0    0.0000
    674 H          93.4833  144.9427  124.1001 H        42        0    0.0000
    675 C          93.8694  143.7882  122.3133 C.3      43        0    0.0000
    676 C          95.0717  143.0888  121.6631 C.3      43        0    0.0000
    677 H          92.9897  143.1452  122.1821 H        43        0    0.0000
    678 H          93.6415  144.7369  121.8133 H        43        0    0.0000
    679 H          95.1670  143.3604  120.6052 H        43        0    0.0000
    680 H          95.9827  143.4442  122.1615 H        43        0    0.0000
    681 C          95.5449  139.7963  125.1562 C.3      44        0    0.0000
    682 C          96.0966  140.6156  123.9979 C.3      44        0    0.0000
    683 C          94.8314  141.0310  123.2401 C.3      44        0    0.0000
    684 C          95.0558  141.5276  121.8085 C.3      44        0    0.0000
    685 C          93.8618  139.8420  123.3866 C.3      44        0    0.0000
    686 C          94.4614  138.9445  124.4868 C.3      44        0    0.0000
    687 C          93.4487  138.3016  125.4393 C.3      44        0    0.0000
    688 H          96.3184  139.1819  125.6273 H        44        0    0.0000
    689 H          95.1308  140.4654  125.9185 H        44        0    0.0000
    690 H          96.6704  141.4803  124.3455 H        44        0    0.0000
    691 H          96.7578  139.9924  123.3857 H        44        0    0.0000
    692 H          94.3879  141.8708  123.7961 H        44        0    0.0000
    693 H          96.0072  141.1295  121.4365 H        44        0    0.0000
    694 H          94.2696  141.1216  121.1610 H        44        0    0.0000
    695 H          93.7533  139.2647  122.4621 H        44        0    0.0000
    696 H          92.8625  140.2135  123.6378 H        44        0    0.0000
    697 H          94.9766  138.1181  123.9744 H        44        0    0.0000
    698 H          93.5560  137.2114  125.3932 H        44        0    0.0000
    699 H          93.6856  138.5983  126.4679 H        44        0    0.0000
    700 C          91.9389  138.4599  121.3750 C.3      45        0    0.0000
    701 C          92.6919  138.4832  122.7077 C.3      45        0    0.0000
    702 C          91.7684  139.1853  123.7119 C.3      45        0    0.0000
    703 C          91.9647  138.6715  125.1409 C.3      45        0    0.0000
    704 C          90.3718  138.9398  123.1313 C.3      45        0    0.0000
    705 C          90.5919  139.1491  121.6294 C.3      45        0    0.0000
    706 C          89.4771  138.5949  120.7379 C.3      45        0    0.0000
    707 H          92.5012  138.9749  120.5886 H        45        0    0.0000
    708 H          91.8033  137.4213  121.0503 H        45        0    0.0000
    709 H          93.6478  139.0103  122.6182 H        45        0    0.0000
    710 H          92.9154  137.4556  123.0186 H        45        0    0.0000
    711 H          91.9791  140.2641  123.6748 H        45        0    0.0000
    712 H          91.3455  137.7793  125.2930 H        45        0    0.0000
    713 H          91.6227  139.4206  125.8647 H        45        0    0.0000
    714 H          89.6318  139.6369  123.5372 H        45        0    0.0000
    715 H          90.0337  137.9171  123.3401 H        45        0    0.0000
    716 H          90.7163  140.2252  121.4397 H        45        0    0.0000
    717 H          89.7182  138.7592  119.6811 H        45        0    0.0000
    718 H          88.5477  139.1412  120.9387 H        45        0    0.0000
    719 C          91.4383  134.8067  118.9150 C.3      46        0    0.0000
    720 C          91.2103  136.1405  119.6097 C.3      46        0    0.0000
    721 C          89.6942  136.1693  119.8417 C.3      46        0    0.0000
    722 C          89.2230  137.0819  120.9810 C.3      46        0    0.0000
    723 C          89.2614  134.6929  119.9541 C.3      46        0    0.0000
    724 C          90.5264  133.8552  119.6922 C.3      46        0    0.0000
    725 C          90.2822  132.5455  118.9385 C.3      46        0    0.0000
    726 H          91.1382  134.8708  117.8620 H        46        0    0.0000
    727 H          92.4876  134.4986  118.9542 H        46        0    0.0000
    728 H          91.7726  136.1647  120.5494 H        46        0    0.0000
    729 H          91.5461  136.9829  118.9969 H        46        0    0.0000
    730 H          89.2359  136.5612  118.9215 H        46        0    0.0000
    731 H          88.1490  136.9275  121.1395 H        46        0    0.0000
    732 H          89.7236  136.7831  121.9097 H        46        0    0.0000
    733 H          88.4882  134.4895  119.2028 H        46        0    0.0000
    734 H          88.8287  134.4452  120.9291 H        46        0    0.0000
    735 H          91.0006  133.6380  120.6605 H        46        0    0.0000
    736 H          91.0891  131.8331  119.1469 H        46        0    0.0000
    737 H          89.3552  132.0860  119.3016 H        46        0    0.0000
    738 C          93.5938  132.8981  115.7643 C.3      47        0    0.0000
    739 C          92.6793  133.1902  116.9457 C.3      47        0    0.0000
    740 C          91.4267  132.3706  116.6191 C.3      47        0    0.0000
    741 C          90.1674  132.7540  117.4023 C.3      47        0    0.0000
    742 C          91.2963  132.4229  115.0843 C.3      47        0    0.0000
    743 C          92.6401  132.9728  114.5673 C.3      47        0    0.0000
    744 C          93.1589  132.3392  113.2729 C.3      47        0    0.0000
    745 H          94.4077  133.6257  115.6876 H        47        0    0.0000
    746 H          94.0369  131.9025  115.8767 H        47        0    0.0000
    747 H          93.1310  132.8900  117.8963 H        47        0    0.0000
    748 H          92.4682  134.2642  116.9935 H        47        0    0.0000
    749 H          91.6518  131.3258  116.8816 H        47        0    0.0000
    750 H          89.9306  133.8066  117.2064 H        47        0    0.0000
    751 H          89.3204  132.1660  117.0294 H        47        0    0.0000
    752 H          90.4812  133.0728  114.7482 H        47        0    0.0000
    753 H          91.0706  131.4216  114.7018 H        47        0    0.0000
    754 H          92.4824  134.0403  114.3513 H        47        0    0.0000
    755 H          94.2511  132.4299  113.2426 H        47        0    0.0000
    756 H          92.9320  131.2665  113.2829 H        47        0    0.0000
    757 C          89.7499  135.0494  113.4072 C.3      48        0    0.0000
    758 C          90.8076  133.9709  113.5855 C.3      48        0    0.0000
    759 C          91.1805  133.5931  112.1463 C.3      48        0    0.0000
    760 C          92.5685  132.9634  111.9730 C.3      48        0    0.0000
    761 C          90.9167  134.8566  111.3017 C.3      48        0    0.0000
    762 C          90.3132  135.8961  112.2639 C.3      48        0    0.0000
    763 C          89.2504  136.8043  111.6406 C.3      48        0    0.0000
    764 H          88.7899  134.5975  113.1294 H        48        0    0.0000
    765 H          89.6023  135.6334  114.3208 H        48        0    0.0000
    766 H          91.6592  134.3813  114.1388 H        48        0    0.0000
    767 H          90.4255  133.1129  114.1475 H        48        0    0.0000
    768 H          90.4538  132.8366  111.8143 H        48        0    0.0000
    769 H          92.5119  132.1840  111.2038 H        48        0    0.0000
    770 H          93.2629  133.7247  111.5981 H        48        0    0.0000
    771 H          90.2150  134.6072  110.4960 H        48        0    0.0000
    772 H          91.8201  135.2505  110.8243 H        48        0    0.0000
    773 H          91.1330  136.5112  112.6626 H        48        0    0.0000
    774 H          88.2489  136.4010  111.8317 H        48        0    0.0000
    775 H          89.2895  137.7897  112.1200 H        48        0    0.0000
    776 C          88.1433  134.5829  108.2907 C.3      49        0    0.0000
    777 C          89.0016  134.5488  109.5581 C.3      49        0    0.0000
    778 C          89.9950  135.7103  109.4444 C.3      49        0    0.0000
    779 C          89.4454  136.9864  110.1091 C.3      49        0    0.0000
    780 C          90.1906  135.8183  107.9268 C.3      49        0    0.0000
    781 C          88.7888  135.6116  107.3475 C.3      49        0    0.0000
    782 C          88.8232  135.1886  105.8745 C.3      49        0    0.0000
    783 H          88.0964  133.5812  107.8486 H        49        0    0.0000
    784 H          87.1158  134.8807  108.5290 H        49        0    0.0000
    785 H          89.5541  133.6010  109.5854 H        49        0    0.0000
    786 H          88.3915  134.5898  110.4662 H        49        0    0.0000
    787 H          90.9426  135.4377  109.9265 H        49        0    0.0000
    788 H          88.4731  137.2335  109.6657 H        49        0    0.0000
    789 H          90.1001  137.8446  109.9238 H        49        0    0.0000
    790 H          90.8632  135.0189  107.5894 H        49        0    0.0000
    791 H          90.6271  136.7696  107.6081 H        49        0    0.0000
    792 H          88.2347  136.5568  107.4349 H        49        0    0.0000
    793 H          88.8156  134.0956  105.7914 H        49        0    0.0000
    794 H          89.7575  135.5358  105.4177 H        49        0    0.0000
    795 C          87.6266  135.7794  105.0748 C.3      50        0    0.0000
    796 C          87.7958  135.7021  103.5508 C.3      50        0    0.0000
    797 H          86.7411  135.1919  105.3493 H        50        0    0.0000
    798 H          87.4345  136.8077  105.4032 H        50        0    0.0000
    799 H          88.6927  136.2397  103.2212 H        50        0    0.0000
    800 H          87.9429  134.6493  103.2775 H        50        0    0.0000
    801 C          83.1950  134.6750  103.6073 C.3      51        0    0.0000
    802 C          84.5588  135.1837  104.0487 C.3      51        0    0.0000
    803 C          85.3604  135.2406  102.7421 C.3      51        0    0.0000
    804 C          86.5499  136.2090  102.7449 C.3      51        0    0.0000
    805 C          84.3216  135.4713  101.6253 C.3      51        0    0.0000
    806 C          82.9435  135.4490  102.3116 C.3      51        0    0.0000
    807 C          81.8222  134.8266  101.4760 C.3      51        0    0.0000
    808 H          83.2345  133.5947  103.4219 H        51        0    0.0000
    809 H          82.4235  134.8657  104.3596 H        51        0    0.0000
    810 H          84.4495  136.1713  104.5097 H        51        0    0.0000
    811 H          85.0236  134.5203  104.7849 H        51        0    0.0000
    812 H          85.7792  134.2364  102.5783 H        51        0    0.0000
    813 H          86.8558  136.3997  101.7093 H        51        0    0.0000
    814 H          86.2273  137.1715  103.1592 H        51        0    0.0000
    815 H          84.4092  134.6665  100.8847 H        51        0    0.0000
    816 H          84.4707  136.4138  101.0880 H        51        0    0.0000
    817 H          82.6745  136.4824  102.5745 H        51        0    0.0000
    818 H          81.1845  134.1971  102.1078 H        51        0    0.0000
    819 H          81.1823  135.6231  101.0778 H        51        0    0.0000
    820 C          85.3006  132.5322  100.5081 C.3      52        0    0.0000
    821 C          84.8097  133.9106  100.9586 C.3      52        0    0.0000
    822 C          83.7996  134.3802   99.9059 C.3      52        0    0.0000
    823 C          82.3623  133.9803  100.2892 C.3      52        0    0.0000
    824 C          84.3275  133.7082   98.6319 C.3      52        0    0.0000
    825 C          84.7534  132.3105   99.0883 C.3      52        0    0.0000
    826 C          85.7465  131.6583   98.1197 C.3      52        0    0.0000
    827 H          86.3955  132.4993  100.5446 H        52        0    0.0000
    828 H          84.9300  131.7517  101.1825 H        52        0    0.0000
    829 H          85.6623  134.6013  100.9757 H        52        0    0.0000
    830 H          84.3970  133.8865  101.9723 H        52        0    0.0000
    831 H          83.8499  135.4718   99.8030 H        52        0    0.0000
    832 H          82.3490  132.9245  100.5857 H        52        0    0.0000
    833 H          81.6829  134.0733   99.4352 H        52        0    0.0000
    834 H          85.1956  134.2676   98.2593 H        52        0    0.0000
    835 H          83.5929  133.6664   97.8223 H        52        0    0.0000
    836 H          83.8558  131.6800   99.1578 H        52        0    0.0000
    837 H          85.8318  130.5851   98.3263 H        52        0    0.0000
    838 H          86.7419  132.0917   98.2723 H        52        0    0.0000
    839 C          85.3315  131.8708   96.6354 C.3      53        0    0.0000
    840 C          86.2426  132.8373   95.8652 C.3      53        0    0.0000
    841 H          84.3188  132.2939   96.6471 H        53        0    0.0000
    842 H          85.2601  130.9010   96.1293 H        53        0    0.0000
    843 H          86.6902  133.5319   96.5875 H        53        0    0.0000
    844 H          87.0729  132.3058   95.3854 H        53        0    0.0000
    845 C          82.0888  132.1363   94.3757 C.3      54        0    0.0000
    846 C          83.3283  132.4409   95.2030 C.3      54        0    0.0000
    847 C          84.3141  132.9724   94.1605 C.3      54        0    0.0000
    848 C          85.4906  133.7115   94.8027 C.3      54        0    0.0000
    849 C          83.4379  133.8369   93.2356 C.3      54        0    0.0000
    850 C          81.9918  133.3333   93.4213 C.3      54        0    0.0000
    851 C          81.2128  133.0761   92.1251 C.3      54        0    0.0000
    852 H          81.1952  132.0376   94.9999 H        54        0    0.0000
    853 H          82.2293  131.1912   93.8402 H        54        0    0.0000
    854 H          83.1025  133.2030   95.9589 H        54        0    0.0000
    855 H          83.7075  131.5515   95.7156 H        54        0    0.0000
    856 H          84.6913  132.1197   93.5772 H        54        0    0.0000
    857 H          86.2009  134.0338   94.0321 H        54        0    0.0000
    858 H          85.1231  134.6214   95.2920 H        54        0    0.0000
    859 H          83.4862  134.8957   93.5191 H        54        0    0.0000
    860 H          83.7864  133.7702   92.1996 H        54        0    0.0000
    861 H          81.4494  134.1272   93.9560 H        54        0    0.0000
    862 H          80.1386  133.1471   92.3327 H        54        0    0.0000
    863 H          81.4016  132.0477   91.7947 H        54        0    0.0000
    864 C          79.7233  133.1218   87.7816 C.3      55        0    0.0000
    865 C          79.8421  133.0570   89.2966 C.3      55        0    0.0000
    866 C          81.2926  133.4803   89.5609 C.3      55        0    0.0000
    867 C          81.5653  134.0457   90.9605 C.3      55        0    0.0000
    868 C          81.6780  134.4041   88.3872 C.3      55        0    0.0000
    869 C          80.4687  134.4122   87.4343 C.3      55        0    0.0000
    870 C          80.8254  134.4904   85.9478 C.3      55        0    0.0000
    871 H          80.2075  132.2499   87.3251 H        55        0    0.0000
    872 H          78.6798  133.1454   87.4531 H        55        0    0.0000
    873 H          79.1214  133.7460   89.7501 H        55        0    0.0000
    874 H          79.6326  132.0535   89.6802 H        55        0    0.0000
    875 H          81.9132  132.5768   89.4658 H        55        0    0.0000
    876 H          82.6261  134.3132   91.0356 H        55        0    0.0000
    877 H          80.9974  134.9748   91.0885 H        55        0    0.0000
    878 H          82.5700  133.9996   87.8928 H        55        0    0.0000
    879 H          81.9262  135.4221   88.7054 H        55        0    0.0000
    880 H          79.8263  135.2636   87.7025 H        55        0    0.0000
    881 H          80.0163  134.0657   85.3418 H        55        0    0.0000
    882 H          80.9204  135.5422   85.6530 H        55        0    0.0000
    883 C          82.1545  133.7565   85.6141 C.3      56        0    0.0000
    884 C          82.4092  133.5802   84.1103 C.3      56        0    0.0000
    885 H          82.0882  132.7592   86.0674 H        56        0    0.0000
    886 H          82.9918  134.2680   86.1032 H        56        0    0.0000
    887 H          82.2295  134.5452   83.6191 H        56        0    0.0000
    888 H          83.4546  133.3170   83.9109 H        56        0    0.0000
    889 C          82.6688  133.8488   80.1662 C.3      57        0    0.0000
    890 C          81.4626  133.6248   81.0814 C.3      57        0    0.0000
    891 C          81.7788  132.3797   81.9294 C.3      57        0    0.0000
    892 C          81.4614  132.5382   83.4214 C.3      57        0    0.0000
    893 C          83.2654  132.1114   81.6745 C.3      57        0    0.0000
    894 C          83.4958  132.5600   80.2273 C.3      57        0    0.0000
    895 C          83.0425  131.5008   79.2047 C.3      57        0    0.0000
    896 H          82.3650  134.1310   79.1537 H        57        0    0.0000
    897 H          83.2660  134.6786   80.5657 H        57        0    0.0000
    898 H          81.2816  134.5185   81.6887 H        57        0    0.0000
    899 H          80.5591  133.4496   80.4857 H        57        0    0.0000
    900 H          81.2051  131.5329   81.5260 H        57        0    0.0000
    901 H          80.4258  132.8794   83.5381 H        57        0    0.0000
    902 H          81.5372  131.5723   83.9338 H        57        0    0.0000
    903 H          83.5271  131.0614   81.8409 H        57        0    0.0000
    904 H          83.8841  132.7181   82.3483 H        57        0    0.0000
    905 H          84.5598  132.7820   80.0759 H        57        0    0.0000
    906 H          82.1872  130.9284   79.5805 H        57        0    0.0000
    907 H          83.8561  130.7850   79.0374 H        57        0    0.0000
    908 C          82.6719  132.1412   77.8356 C.3      58        0    0.0000
    909 C          82.5833  131.1346   76.6796 C.3      58        0    0.0000
    910 H          81.6849  132.6049   77.9596 H        58        0    0.0000
    911 H          83.3726  132.9524   77.6054 H        58        0    0.0000
    912 H          81.7136  130.4763   76.7896 H        58        0    0.0000
    913 H          82.4353  131.6972   75.7489 H        58        0    0.0000
    914 C          86.7923  130.7041   75.0370 C.3      59        0    0.0000
    915 C          86.4161  130.2788   76.4589 C.3      59        0    0.0000
    916 C          85.1533  131.0639   76.8300 C.3      59        0    0.0000
    917 C          83.8780  130.2716   76.4857 C.3      59        0    0.0000
    918 C          85.3327  132.3589   76.0275 C.3      59        0    0.0000
    919 C          85.8891  131.8959   74.6787 C.3      59        0    0.0000
    920 C          86.5979  133.0249   73.9219 C.3      59        0    0.0000
    921 H          87.8574  130.9591   74.9967 H        59        0    0.0000
    922 H          86.6291  129.8805   74.3325 H        59        0    0.0000
    923 H          87.2302  130.5600   77.1390 H        59        0    0.0000
    924 H          86.2902  129.1944   76.5415 H        59        0    0.0000
    925 H          85.1555  131.2852   77.9051 H        59        0    0.0000
    926 H          83.8093  129.3962   77.1428 H        59        0    0.0000
    927 H          83.9123  129.8899   75.4597 H        59        0    0.0000
    928 H          86.0596  133.0045   76.5375 H        59        0    0.0000
    929 H          84.4090  132.9337   75.9117 H        59        0    0.0000
    930 H          85.0538  131.5257   74.0677 H        59        0    0.0000
    931 H          87.4823  133.3593   74.4766 H        59        0    0.0000
    932 H          85.9265  133.8881   73.8434 H        59        0    0.0000
    933 H          86.8918  132.7178   72.9182 H        59        0    0.0000
    934 H          50.1341  162.5916  157.3027 H         0        0    0.0000
@<TRIPOS>BOND
     1     1     2      1
     2     1     6      1
     3     1     8      1
     4     1     9      1
     5     2     3      1
     6     2    10      1
     7     2    11      1
     8     3     4      1
     9     3     5      1
    10     3    12      1
    11     4    13      1
    12     4    14      1
    13     4   934      H
    14     5     6      1
    15     5    15      1
    16     5    16      1
    17     6     7      1
    18     6    17      1
    19     7    18      1
    20     7    19      1
    21     7    23      1
    22    20    21      1
    23    20    25      1
    24    20    27      1
    25    20    28      1
    26    21    22      1
    27    21    29      1
    28    21    30      1
    29    22    23      1
    30    22    24      1
    31    22    31      1
    32    23    32      1
    33    23    33      1
    34    24    25      1
    35    24    34      1
    36    24    35      1
    37    25    26      1
    38    25    36      1
    39    26    37      1
    40    26    38      1
    41    26    39      1
    42    39    40      1
    43    39    41      1
    44    39    42      1
    45    40    43      1
    46    40    44      1
    47    40    48      1
    48    45    46      1
    49    45    50      1
    50    45    52      1
    51    45    53      1
    52    46    47      1
    53    46    54      1
    54    46    55      1
    55    47    48      1
    56    47    49      1
    57    47    56      1
    58    48    57      1
    59    48    58      1
    60    49    50      1
    61    49    59      1
    62    49    60      1
    63    50    51      1
    64    50    61      1
    65    51    62      1
    66    51    63      1
    67    51    64      1
    68    64    65      1
    69    64    66      1
    70    64    67      1
    71    65    68      1
    72    65    69      1
    73    65    73      1
    74    70    71      1
    75    70    75      1
    76    70    77      1
    77    70    78      1
    78    71    72      1
    79    71    79      1
    80    71    80      1
    81    72    73      1
    82    72    74      1
    83    72    81      1
    84    73    82      1
    85    73    83      1
    86    74    75      1
    87    74    84      1
    88    74    85      1
    89    75    76      1
    90    75    86      1
    91    76    87      1
    92    76    88      1
    93    76    92      1
    94    89    90      1
    95    89    94      1
    96    89    96      1
    97    89    97      1
    98    90    91      1
    99    90    98      1
   100    90    99      1
   101    91    92      1
   102    91    93      1
   103    91   100      1
   104    92   101      1
   105    92   102      1
   106    93    94      1
   107    93   103      1
   108    93   104      1
   109    94    95      1
   110    94   105      1
   111    95   106      1
   112    95   107      1
   113    95   108      1
   114   108   109      1
   115   108   110      1
   116   108   111      1
   117   109   112      1
   118   109   113      1
   119   109   114      1
   120   114   115      1
   121   114   116      1
   122   114   117      1
   123   115   118      1
   124   115   119      1
   125   115   120      1
   126   120   121      1
   127   120   122      1
   128   120   123      1
   129   121   124      1
   130   121   125      1
   131   121   126      1
   132   126   127      1
   133   126   128      1
   134   126   129      1
   135   127   130      1
   136   127   131      1
   137   127   135      1
   138   132   133      1
   139   132   137      1
   140   132   139      1
   141   132   140      1
   142   133   134      1
   143   133   141      1
   144   133   142      1
   145   134   135      1
   146   134   136      1
   147   134   143      1
   148   135   144      1
   149   135   145      1
   150   136   137      1
   151   136   146      1
   152   136   147      1
   153   137   138      1
   154   137   148      1
   155   138   149      1
   156   138   150      1
   157   138   154      1
   158   151   152      1
   159   151   156      1
   160   151   158      1
   161   151   159      1
   162   152   153      1
   163   152   160      1
   164   152   161      1
   165   153   154      1
   166   153   155      1
   167   153   162      1
   168   154   163      1
   169   154   164      1
   170   155   156      1
   171   155   165      1
   172   155   166      1
   173   156   157      1
   174   156   167      1
   175   157   168      1
   176   157   169      1
   177   157   170      1
   178   170   171      1
   179   170   172      1
   180   170   173      1
   181   171   174      1
   182   171   175      1
   183   171   179      1
   184   176   177      1
   185   176   181      1
   186   176   183      1
   187   176   184      1
   188   177   178      1
   189   177   185      1
   190   177   186      1
   191   178   179      1
   192   178   180      1
   193   178   187      1
   194   179   188      1
   195   179   189      1
   196   180   181      1
   197   180   190      1
   198   180   191      1
   199   181   182      1
   200   181   192      1
   201   182   193      1
   202   182   194      1
   203   182   195      1
   204   195   196      1
   205   195   197      1
   206   195   198      1
   207   196   199      1
   208   196   200      1
   209   196   204      1
   210   201   202      1
   211   201   206      1
   212   201   208      1
   213   201   209      1
   214   202   203      1
   215   202   210      1
   216   202   211      1
   217   203   204      1
   218   203   205      1
   219   203   212      1
   220   204   213      1
   221   204   214      1
   222   205   206      1
   223   205   215      1
   224   205   216      1
   225   206   207      1
   226   206   217      1
   227   207   218      1
   228   207   219      1
   229   207   223      1
   230   220   221      1
   231   220   225      1
   232   220   227      1
   233   220   228      1
   234   221   222      1
   235   221   229      1
   236   221   230      1
   237   222   223      1
   238   222   224      1
   239   222   231      1
   240   223   232      1
   241   223   233      1
   242   224   225      1
   243   224   234      1
   244   224   235      1
   245   225   226      1
   246   225   236      1
   247   226   237      1
   248   226   238      1
   249   226   242      1
   250   239   240      1
   251   239   244      1
   252   239   246      1
   253   239   247      1
   254   240   241      1
   255   240   248      1
   256   240   249      1
   257   241   242      1
   258   241   243      1
   259   241   250      1
   260   242   251      1
   261   242   252      1
   262   243   244      1
   263   243   253      1
   264   243   254      1
   265   244   245      1
   266   244   255      1
   267   245   256      1
   268   245   257      1
   269   245   261      1
   270   258   259      1
   271   258   263      1
   272   258   265      1
   273   258   266      1
   274   259   260      1
   275   259   267      1
   276   259   268      1
   277   260   261      1
   278   260   262      1
   279   260   269      1
   280   261   270      1
   281   261   271      1
   282   262   263      1
   283   262   272      1
   284   262   273      1
   285   263   264      1
   286   263   274      1
   287   264   275      1
   288   264   276      1
   289   264   277      1
   290   277   278      1
   291   277   279      1
   292   277   280      1
   293   278   281      1
   294   278   282      1
   295   278   286      1
   296   283   284      1
   297   283   288      1
   298   283   290      1
   299   283   291      1
   300   284   285      1
   301   284   292      1
   302   284   293      1
   303   285   286      1
   304   285   287      1
   305   285   294      1
   306   286   295      1
   307   286   296      1
   308   287   288      1
   309   287   297      1
   310   287   298      1
   311   288   289      1
   312   288   299      1
   313   289   300      1
   314   289   301      1
   315   289   305      1
   316   302   303      1
   317   302   307      1
   318   302   309      1
   319   302   310      1
   320   303   304      1
   321   303   311      1
   322   303   312      1
   323   304   305      1
   324   304   306      1
   325   304   313      1
   326   305   314      1
   327   305   315      1
   328   306   307      1
   329   306   316      1
   330   306   317      1
   331   307   308      1
   332   307   318      1
   333   308   319      1
   334   308   320      1
   335   308   324      1
   336   321   322      1
   337   321   326      1
   338   321   328      1
   339   321   329      1
   340   322   323      1
   341   322   330      1
   342   322   331      1
   343   323   324      1
   344   323   325      1
   345   323   332      1
   346   324   333      1
   347   324   334      1
   348   325   326      1
   349   325   335      1
   350   325   336      1
   351   326   327      1
   352   326   337      1
   353   327   338      1
   354   327   339      1
   355   327   343      1
   356   340   341      1
   357   340   345      1
   358   340   347      1
   359   340   348      1
   360   341   342      1
   361   341   349      1
   362   341   350      1
   363   342   343      1
   364   342   344      1
   365   342   351      1
   366   343   352      1
   367   343   353      1
   368   344   345      1
   369   344   354      1
   370   344   355      1
   371   345   346      1
   372   345   356      1
   373   346   357      1
   374   346   358      1
   375   346   362      1
   376   359   360      1
   377   359   364      1
   378   359   366      1
   379   359   367      1
   380   360   361      1
   381   360   368      1
   382   360   369      1
   383   361   362      1
   384   361   363      1
   385   361   370      1
   386   362   371      1
   387   362   372      1
   388   363   364      1
   389   363   373      1
   390   363   374      1
   391   364   365      1
   392   364   375      1
   393   365   376      1
   394   365   377      1
   395   365   381      1
   396   378   379      1
   397   378   383      1
   398   378   385      1
   399   378   386      1
   400   379   380      1
   401   379   387      1
   402   379   388      1
   403   380   381      1
   404   380   382      1
   405   380   389      1
   406   381   390      1
   407   381   391      1
   408   382   383      1
   409   382   392      1
   410   382   393      1
   411   383   384      1
   412   383   394      1
   413   384   395      1
   414   384   396      1
   415   384   397      1
   416   397   398      1
   417   397   399      1
   418   397   400      1
   419   398   401      1
   420   398   402      1
   421   398   406      1
   422   403   404      1
   423   403   408      1
   424   403   410      1
   425   403   411      1
   426   404   405      1
   427   404   412      1
   428   404   413      1
   429   405   406      1
   430   405   407      1
   431   405   414      1
   432   406   415      1
   433   406   416      1
   434   407   408      1
   435   407   417      1
   436   407   418      1
   437   408   409      1
   438   408   419      1
   439   409   420      1
   440   409   421      1
   441   409   425      1
   442   422   423      1
   443   422   427      1
   444   422   429      1
   445   422   430      1
   446   423   424      1
   447   423   431      1
   448   423   432      1
   449   424   425      1
   450   424   426      1
   451   424   433      1
   452   425   434      1
   453   425   435      1
   454   426   427      1
   455   426   436      1
   456   426   437      1
   457   427   428      1
   458   427   438      1
   459   428   439      1
   460   428   440      1
   461   428   444      1
   462   441   442      1
   463   441   446      1
   464   441   448      1
   465   441   449      1
   466   442   443      1
   467   442   450      1
   468   442   451      1
   469   443   444      1
   470   443   445      1
   471   443   452      1
   472   444   453      1
   473   444   454      1
   474   445   446      1
   475   445   455      1
   476   445   456      1
   477   446   447      1
   478   446   457      1
   479   447   458      1
   480   447   459      1
   481   447   463      1
   482   460   461      1
   483   460   465      1
   484   460   467      1
   485   460   468      1
   486   461   462      1
   487   461   469      1
   488   461   470      1
   489   462   463      1
   490   462   464      1
   491   462   471      1
   492   463   472      1
   493   463   473      1
   494   464   465      1
   495   464   474      1
   496   464   475      1
   497   465   466      1
   498   465   476      1
   499   466   477      1
   500   466   478      1
   501   466   479      1
   502   479   480      1
   503   479   481      1
   504   479   482      1
   505   480   483      1
   506   480   484      1
   507   480   488      1
   508   485   486      1
   509   485   490      1
   510   485   492      1
   511   485   493      1
   512   486   487      1
   513   486   494      1
   514   486   495      1
   515   487   488      1
   516   487   489      1
   517   487   496      1
   518   488   497      1
   519   488   498      1
   520   489   490      1
   521   489   499      1
   522   489   500      1
   523   490   491      1
   524   490   501      1
   525   491   502      1
   526   491   503      1
   527   491   507      1
   528   504   505      1
   529   504   509      1
   530   504   511      1
   531   504   512      1
   532   505   506      1
   533   505   513      1
   534   505   514      1
   535   506   507      1
   536   506   508      1
   537   506   515      1
   538   507   516      1
   539   507   517      1
   540   508   509      1
   541   508   518      1
   542   508   519      1
   543   509   510      1
   544   509   520      1
   545   510   521      1
   546   510   522      1
   547   510   526      1
   548   523   524      1
   549   523   528      1
   550   523   530      1
   551   523   531      1
   552   524   525      1
   553   524   532      1
   554   524   533      1
   555   525   526      1
   556   525   527      1
   557   525   534      1
   558   526   535      1
   559   526   536      1
   560   527   528      1
   561   527   537      1
   562   527   538      1
   563   528   529      1
   564   528   539      1
   565   529   540      1
   566   529   541      1
   567   529   545      1
   568   542   543      1
   569   542   547      1
   570   542   549      1
   571   542   550      1
   572   543   544      1
   573   543   551      1
   574   543   552      1
   575   544   545      1
   576   544   546      1
   577   544   553      1
   578   545   554      1
   579   545   555      1
   580   546   547      1
   581   546   556      1
   582   546   557      1
   583   547   548      1
   584   547   558      1
   585   548   559      1
   586   548   560      1
   587   548   564      1
   588   561   562      1
   589   561   566      1
   590   561   568      1
   591   561   569      1
   592   562   563      1
   593   562   570      1
   594   562   571      1
   595   563   564      1
   596   563   565      1
   597   563   572      1
   598   564   573      1
   599   564   574      1
   600   565   566      1
   601   565   575      1
   602   565   576      1
   603   566   567      1
   604   566   577      1
   605   567   578      1
   606   567   579      1
   607   567   583      1
   608   580   581      1
   609   580   585      1
   610   580   587      1
   611   580   588      1
   612   581   582      1
   613   581   589      1
   614   581   590      1
   615   582   583      1
   616   582   584      1
   617   582   591      1
   618   583   592      1
   619   583   593      1
   620   584   585      1
   621   584   594      1
   622   584   595      1
   623   585   586      1
   624   585   596      1
   625   586   597      1
   626   586   598      1
   627   586   602      1
   628   599   600      1
   629   599   604      1
   630   599   606      1
   631   599   607      1
   632   600   601      1
   633   600   608      1
   634   600   609      1
   635   601   602      1
   636   601   603      1
   637   601   610      1
   638   602   611      1
   639   602   612      1
   640   603   604      1
   641   603   613      1
   642   603   614      1
   643   604   605      1
   644   604   615      1
   645   605   616      1
   646   605   617      1
   647   605   621      1
   648   618   619      1
   649   618   623      1
   650   618   625      1
   651   618   626      1
   652   619   620      1
   653   619   627      1
   654   619   628      1
   655   620   621      1
   656   620   622      1
   657   620   629      1
   658   621   630      1
   659   621   631      1
   660   622   623      1
   661   622   632      1
   662   622   633      1
   663   623   624      1
   664   623   634      1
   665   624   635      1
   666   624   636      1
   667   624   640      1
   668   637   638      1
   669   637   642      1
   670   637   644      1
   671   637   645      1
   672   638   639      1
   673   638   646      1
   674   638   647      1
   675   639   640      1
   676   639   641      1
   677   639   648      1
   678   640   649      1
   679   640   650      1
   680   641   642      1
   681   641   651      1
   682   641   652      1
   683   642   643      1
   684   642   653      1
   685   643   654      1
   686   643   655      1
   687   643   659      1
   688   656   657      1
   689   656   661      1
   690   656   663      1
   691   656   664      1
   692   657   658      1
   693   657   665      1
   694   657   666      1
   695   658   659      1
   696   658   660      1
   697   658   667      1
   698   659   668      1
   699   659   669      1
   700   660   661      1
   701   660   670      1
   702   660   671      1
   703   661   662      1
   704   661   672      1
   705   662   673      1
   706   662   674      1
   707   662   675      1
   708   675   676      1
   709   675   677      1
   710   675   678      1
   711   676   679      1
   712   676   680      1
   713   676   684      1
   714   681   682      1
   715   681   686      1
   716   681   688      1
   717   681   689      1
   718   682   683      1
   719   682   690      1
   720   682   691      1
   721   683   684      1
   722   683   685      1
   723   683   692      1
   724   684   693      1
   725   684   694      1
   726   685   686      1
   727   685   695      1
   728   685   696      1
   729   686   687      1
   730   686   697      1
   731   687   698      1
   732   687   699      1
   733   687   703      1
   734   700   701      1
   735   700   705      1
   736   700   707      1
   737   700   708      1
   738   701   702      1
   739   701   709      1
   740   701   710      1
   741   702   703      1
   742   702   704      1
   743   702   711      1
   744   703   712      1
   745   703   713      1
   746   704   705      1
   747   704   714      1
   748   704   715      1
   749   705   706      1
   750   705   716      1
   751   706   717      1
   752   706   718      1
   753   706   722      1
   754   719   720      1
   755   719   724      1
   756   719   726      1
   757   719   727      1
   758   720   721      1
   759   720   728      1
   760   720   729      1
   761   721   722      1
   762   721   723      1
   763   721   730      1
   764   722   731      1
   765   722   732      1
   766   723   724      1
   767   723   733      1
   768   723   734      1
   769   724   725      1
   770   724   735      1
   771   725   736      1
   772   725   737      1
   773   725   741      1
   774   738   739      1
   775   738   743      1
   776   738   745      1
   777   738   746      1
   778   739   740      1
   779   739   747      1
   780   739   748      1
   781   740   741      1
   782   740   742      1
   783   740   749      1
   784   741   750      1
   785   741   751      1
   786   742   743      1
   787   742   752      1
   788   742   753      1
   789   743   744      1
   790   743   754      1
   791   744   755      1
   792   744   756      1
   793   744   760      1
   794   757   758      1
   795   757   762      1
   796   757   764      1
   797   757   765      1
   798   758   759      1
   799   758   766      1
   800   758   767      1
   801   759   760      1
   802   759   761      1
   803   759   768      1
   804   760   769      1
   805   760   770      1
   806   761   762      1
   807   761   771      1
   808   761   772      1
   809   762   763      1
   810   762   773      1
   811   763   774      1
   812   763   775      1
   813   763   779      1
   814   776   777      1
   815   776   781      1
   816   776   783      1
   817   776   784      1
   818   777   778      1
   819   777   785      1
   820   777   786      1
   821   778   779      1
   822   778   780      1
   823   778   787      1
   824   779   788      1
   825   779   789      1
   826   780   781      1
   827   780   790      1
   828   780   791      1
   829   781   782      1
   830   781   792      1
   831   782   793      1
   832   782   794      1
   833   782   795      1
   834   795   796      1
   835   795   797      1
   836   795   798      1
   837   796   799      1
   838   796   800      1
   839   796   804      1
   840   801   802      1
   841   801   806      1
   842   801   808      1
   843   801   809      1
   844   802   803      1
   845   802   810      1
   846   802   811      1
   847   803   804      1
   848   803   805      1
   849   803   812      1
   850   804   813      1
   851   804   814      1
   852   805   806      1
   853   805   815      1
   854   805   816      1
   855   806   807      1
   856   806   817      1
   857   807   818      1
   858   807   819      1
   859   807   823      1
   860   820   821      1
   861   820   825      1
   862   820   827      1
   863   820   828      1
   864   821   822      1
   865   821   829      1
   866   821   830      1
   867   822   823      1
   868   822   824      1
   869   822   831      1
   870   823   832      1
   871   823   833      1
   872   824   825      1
   873   824   834      1
   874   824   835      1
   875   825   826      1
   876   825   836      1
   877   826   837      1
   878   826   838      1
   879   826   839      1
   880   839   840      1
   881   839   841      1
   882   839   842      1
   883   840   843      1
   884   840   844      1
   885   840   848      1
   886   845   846      1
   887   845   850      1
   888   845   852      1
   889   845   853      1
   890   846   847      1
   891   846   854      1
   892   846   855      1
   893   847   848      1
   894   847   849      1
   895   847   856      1
   896   848   857      1
   897   848   858      1
   898   849   850      1
   899   849   859      1
   900   849   860      1
   901   850   851      1
   902   850   861      1
   903   851   862      1
   904   851   863      1
   905   851   867      1
   906   864   865      1
   907   864   869      1
   908   864   871      1
   909   864   872      1
   910   865   866      1
   911   865   873      1
   912   865   874      1
   913   866   867      1
   914   866   868      1
   915   866   875      1
   916   867   876      1
   917   867   877      1
   918   868   869      1
   919   868   878      1
   920   868   879      1
   921   869   870      1
   922   869   880      1
   923   870   881      1
   924   870   882      1
   925   870   883      1
   926   883   884      1
   927   883   885      1
   928   883   886      1
   929   884   887      1
   930   884   888      1
   931   884   892      1
   932   889   890      1
   933   889   894      1
   934   889   896      1
   935   889   897      1
   936   890   891      1
   937   890   898      1
   938   890   899      1
   939   891   892      1
   940   891   893      1
   941   891   900      1
   942   892   901      1
   943   892   902      1
   944   893   894      1
   945   893   903      1
   946   893   904      1
   947   894   895      1
   948   894   905      1
   949   895   906      1
   950   895   907      1
   951   895   908      1
   952   908   909      1
   953   908   910      1
   954   908   911      1
   955   909   912      1
   956   909   913      1
   957   909   917      1
   958   914   915      1
   959   914   919      1
   960   914   921      1
   961   914   922      1
   962   915   916      1
   963   915   923      1
   964   915   924      1
   965   916   917      1
   966   916   918      1
   967   916   925      1
   968   917   926      1
   969   917   927      1
   970   918   919      1
   971   918   928      1
   972   918   929      1
   973   919   920      1
   974   919   930      1
   975   920   931      1
   976   920   932      1
   977   920   933      H
