###
### Created by PolyChef-cpp17 on Wed Feb 26 21:14:12 2025
###

@<TRIPOS>MOLECULE
NO_INFO
1468 1535 1 0 0
SMALL
USER_CHARGES


@<TRIPOS>ATOM
      1 C         128.1536  239.4561  184.1925 C.3       0        0    0.0000
      2 C         129.0381  240.5617  184.7519 C.3       0        0    0.0000
      3 C         130.4387  240.1444  184.2918 C.3       0        0    0.0000
      4 C         131.6005  240.8256  185.0214 C.3       0        0    0.0000
      5 C         130.4382  238.6038  184.3361 C.3       0        0    0.0000
      6 C         128.9618  238.1887  184.4893 C.3       0        0    0.0000
      7 C         128.5415  236.9421  183.7048 C.3       0        0    0.0000
      8 H         127.1697  239.4380  184.6715 H         0        0    0.0000
      9 H         128.0060  239.6086  183.1177 H         0        0    0.0000
     10 H         128.7549  241.5461  184.3667 H         0        0    0.0000
     11 H         128.9533  240.5864  185.8439 H         0        0    0.0000
     12 H         130.5246  240.4300  183.2325 H         0        0    0.0000
     13 H         131.7846  240.3032  185.9677 H         0        0    0.0000
     14 H         132.5119  240.7202  184.4209 H         0        0    0.0000
     15 H         131.0202  238.2018  185.1724 H         0        0    0.0000
     16 H         130.8982  238.2112  183.4228 H         0        0    0.0000
     17 H         128.8084  237.9546  185.5536 H         0        0    0.0000
     18 H         127.5770  236.5870  184.0870 H         0        0    0.0000
     19 H         128.3828  237.2159  182.6550 H         0        0    0.0000
     20 C         129.9259  234.0156  180.5169 C.3       1        0    0.0000
     21 C         129.1746  235.0875  181.3103 C.3       1        0    0.0000
     22 C         129.2085  234.6481  182.7851 C.3       1        0    0.0000
     23 C         129.5667  235.7703  183.7672 C.3       1        0    0.0000
     24 C         130.2210  233.4988  182.8180 C.3       1        0    0.0000
     25 C         130.0706  232.8130  181.4559 C.3       1        0    0.0000
     26 C         128.8619  231.8591  181.4085 C.3       1        0    0.0000
     27 H         129.4246  233.7811  179.5731 H         1        0    0.0000
     28 H         130.9237  234.3972  180.2649 H         1        0    0.0000
     29 H         129.6368  236.0673  181.1474 H         1        0    0.0000
     30 H         128.1359  235.1582  180.9670 H         1        0    0.0000
     31 H         128.2213  234.2409  183.0464 H         1        0    0.0000
     32 H         129.5762  235.3702  184.7880 H         1        0    0.0000
     33 H         130.5753  236.1487  183.5649 H         1        0    0.0000
     34 H         130.0431  232.8195  183.6580 H         1        0    0.0000
     35 H         131.2412  233.8912  182.9194 H         1        0    0.0000
     36 H         130.9859  232.2546  181.2220 H         1        0    0.0000
     37 H         127.9449  232.3954  181.1405 H         1        0    0.0000
     38 H         128.6995  231.4279  182.4035 H         1        0    0.0000
     39 C         129.0871  230.6908  180.4054 C.3       2        0    0.0000
     40 C         128.0629  229.5540  180.5317 C.3       2        0    0.0000
     41 H         129.0000  231.1172  179.3978 H         2        0    0.0000
     42 H         130.1130  230.3158  180.4994 H         2        0    0.0000
     43 H         127.8924  229.2854  181.5809 H         2        0    0.0000
     44 H         127.1032  229.9153  180.1404 H         2        0    0.0000
     45 C         129.8180  225.8138  182.1230 C.3       3        0    0.0000
     46 C         129.4528  227.2771  181.8622 C.3       3        0    0.0000
     47 C         129.5984  227.5039  180.3468 C.3       3        0    0.0000
     48 C         128.4318  228.2699  179.7109 C.3       3        0    0.0000
     49 C         129.7589  226.0963  179.7637 C.3       3        0    0.0000
     50 C         130.5054  225.3122  180.8483 C.3       3        0    0.0000
     51 C         132.0217  225.5838  180.8312 C.3       3        0    0.0000
     52 H         130.4252  225.7001  183.0260 H         3        0    0.0000
     53 H         128.8946  225.2423  182.2823 H         3        0    0.0000
     54 H         128.4405  227.4817  182.2278 H         3        0    0.0000
     55 H         130.1338  227.9429  182.4052 H         3        0    0.0000
     56 H         130.5326  228.0556  180.1688 H         3        0    0.0000
     57 H         128.7083  228.5742  178.6944 H         3        0    0.0000
     58 H         127.5523  227.6221  179.6204 H         3        0    0.0000
     59 H         130.2891  226.1071  178.8059 H         3        0    0.0000
     60 H         128.7756  225.6390  179.5931 H         3        0    0.0000
     61 H         130.3253  224.2378  180.7155 H         3        0    0.0000
     62 H         132.2848  226.4019  181.5108 H         3        0    0.0000
     63 H         132.3240  225.8961  179.8245 H         3        0    0.0000
     64 C         132.8399  224.3157  181.2109 C.3       4        0    0.0000
     65 C         133.9280  223.9472  180.1922 C.3       4        0    0.0000
     66 H         133.3295  224.5298  182.1695 H         4        0    0.0000
     67 H         132.1582  223.4755  181.3879 H         4        0    0.0000
     68 H         134.3755  224.8426  179.7451 H         4        0    0.0000
     69 H         134.7334  223.4277  180.7272 H         4        0    0.0000
     70 C         131.2613  221.3365  177.2328 C.3       5        0    0.0000
     71 C         131.5448  222.8342  177.3766 C.3       5        0    0.0000
     72 C         131.9165  223.0696  178.8447 C.3       5        0    0.0000
     73 C         133.4391  222.9791  179.0598 C.3       5        0    0.0000
     74 C         131.1082  221.9793  179.5595 C.3       5        0    0.0000
     75 C         131.2430  220.7518  178.6549 C.3       5        0    0.0000
     76 C         130.1366  219.7202  178.9032 C.3       5        0    0.0000
     77 H         130.3111  221.1886  176.7072 H         5        0    0.0000
     78 H         132.0417  220.8522  176.6347 H         5        0    0.0000
     79 H         130.6292  223.3914  177.1411 H         5        0    0.0000
     80 H         132.3149  223.1736  176.6764 H         5        0    0.0000
     81 H         131.5706  224.0619  179.1614 H         5        0    0.0000
     82 H         133.9513  223.2522  178.1292 H         5        0    0.0000
     83 H         133.7467  221.9551  179.2966 H         5        0    0.0000
     84 H         130.0572  222.2902  179.6246 H         5        0    0.0000
     85 H         131.4529  221.7752  180.5776 H         5        0    0.0000
     86 H         132.2181  220.2834  178.8492 H         5        0    0.0000
     87 H         129.9327  219.1521  177.9882 H         5        0    0.0000
     88 H         129.2081  220.2391  179.1690 H         5        0    0.0000
     89 C         130.0335  215.2551  178.6883 C.3       6        0    0.0000
     90 C         130.0319  216.7748  178.5039 C.3       6        0    0.0000
     91 C         129.8243  217.3777  179.8995 C.3       6        0    0.0000
     92 C         130.5074  218.7396  180.0526 C.3       6        0    0.0000
     93 C         130.3589  216.2867  180.8332 C.3       6        0    0.0000
     94 C         129.8268  215.0030  180.1876 C.3       6        0    0.0000
     95 C         130.5125  213.7186  180.6618 C.3       6        0    0.0000
     96 H         129.2434  214.7794  178.0974 H         6        0    0.0000
     97 H         130.9899  214.8462  178.3408 H         6        0    0.0000
     98 H         129.2409  217.0938  177.8167 H         6        0    0.0000
     99 H         130.9875  217.0907  178.0684 H         6        0    0.0000
    100 H         128.7430  217.4854  180.0688 H         6        0    0.0000
    101 H         131.5951  218.6007  180.0553 H         6        0    0.0000
    102 H         130.2440  219.1908  181.0164 H         6        0    0.0000
    103 H         129.9944  216.4106  181.8579 H         6        0    0.0000
    104 H         131.4559  216.2904  180.8542 H         6        0    0.0000
    105 H         128.7456  214.9367  180.3780 H         6        0    0.0000
    106 H         130.2671  212.8867  179.9914 H         6        0    0.0000
    107 H         130.1298  213.4489  181.6535 H         6        0    0.0000
    108 C         132.0556  213.8715  180.7528 C.3       7        0    0.0000
    109 C         132.8071  212.5403  180.8958 C.3       7        0    0.0000
    110 H         132.3823  214.3484  179.8197 H         7        0    0.0000
    111 H         132.3112  214.5630  181.5642 H         7        0    0.0000
    112 H         133.8921  212.6955  180.9224 H         7        0    0.0000
    113 H         132.5302  212.0948  181.8598 H         7        0    0.0000
    114 C         132.4512  211.4859  179.7911 C.3       8        0    0.0000
    115 C         133.1228  210.1200  179.9929 C.3       8        0    0.0000
    116 H         132.7992  211.8985  178.8355 H         8        0    0.0000
    117 H         131.3622  211.3871  179.7118 H         8        0    0.0000
    118 H         134.1441  210.2931  180.3555 H         8        0    0.0000
    119 H         132.6110  209.5342  180.7655 H         8        0    0.0000
    120 C         133.2461  209.2706  178.6807 C.3       9        0    0.0000
    121 C         133.8924  207.8933  178.8875 C.3       9        0    0.0000
    122 H         132.2260  209.1153  178.3067 H         9        0    0.0000
    123 H         133.7760  209.8489  177.9147 H         9        0    0.0000
    124 H         133.2436  207.0892  178.5210 H         9        0    0.0000
    125 H         134.8102  207.8543  178.2868 H         9        0    0.0000
    126 C         134.3094  207.6014  180.3706 C.3      10        0    0.0000
    127 C         134.9241  206.2106  180.5836 C.3      10        0    0.0000
    128 H         133.3956  207.6660  180.9751 H        10        0    0.0000
    129 H         134.9787  208.3925  180.7287 H        10        0    0.0000
    130 H         135.9463  206.3443  180.9601 H        10        0    0.0000
    131 H         134.3792  205.6469  181.3499 H        10        0    0.0000
    132 C         137.4261  202.4084  179.4567 C.3      11        0    0.0000
    133 C         137.1145  203.8769  179.7091 C.3      11        0    0.0000
    134 C         135.6001  203.9480  179.4872 C.3      11        0    0.0000
    135 C         135.0320  205.3545  179.2745 C.3      11        0    0.0000
    136 C         135.3069  202.9358  178.3625 C.3      11        0    0.0000
    137 C         136.5864  202.0893  178.2154 C.3      11        0    0.0000
    138 C         136.3643  200.5995  177.9371 C.3      11        0    0.0000
    139 H         138.4938  202.2406  179.2852 H        11        0    0.0000
    140 H         137.1229  201.8115  180.3239 H        11        0    0.0000
    141 H         137.3970  204.1869  180.7199 H        11        0    0.0000
    142 H         137.6652  204.4999  178.9957 H        11        0    0.0000
    143 H         135.1254  203.5538  180.3985 H        11        0    0.0000
    144 H         135.6621  205.8899  178.5544 H        11        0    0.0000
    145 H         134.0361  205.2743  178.8230 H        11        0    0.0000
    146 H         135.0746  203.4172  177.4064 H        11        0    0.0000
    147 H         134.4288  202.3375  178.6283 H        11        0    0.0000
    148 H         137.1330  202.4909  177.3488 H        11        0    0.0000
    149 H         137.1513  200.2399  177.2637 H        11        0    0.0000
    150 H         136.4713  200.0401  178.8739 H        11        0    0.0000
    151 C         134.8006  196.6409  176.2795 C.3      12        0    0.0000
    152 C         135.4813  197.7838  177.0373 C.3      12        0    0.0000
    153 C         135.0462  199.0806  176.3421 C.3      12        0    0.0000
    154 C         134.9775  200.2651  177.3101 C.3      12        0    0.0000
    155 C         133.7069  198.7003  175.7022 C.3      12        0    0.0000
    156 C         133.9827  197.2947  175.1581 C.3      12        0    0.0000
    157 C         132.7288  196.4892  174.8067 C.3      12        0    0.0000
    158 H         135.5349  195.9380  175.8716 H        12        0    0.0000
    159 H         134.1592  196.0776  176.9679 H        12        0    0.0000
    160 H         136.5715  197.6785  177.0254 H        12        0    0.0000
    161 H         135.1645  197.7655  178.0870 H        12        0    0.0000
    162 H         135.7680  199.2990  175.5415 H        12        0    0.0000
    163 H         134.2761  200.0306  178.1198 H        12        0    0.0000
    164 H         134.5848  201.1518  176.7987 H        12        0    0.0000
    165 H         133.4204  199.3974  174.9083 H        12        0    0.0000
    166 H         132.9051  198.6815  176.4509 H        12        0    0.0000
    167 H         134.6265  197.3822  174.2708 H        12        0    0.0000
    168 H         132.1733  196.9827  174.0006 H        12        0    0.0000
    169 H         132.0625  196.4586  175.6771 H        12        0    0.0000
    170 C         133.0615  195.0308  174.3878 C.3      13        0    0.0000
    171 C         132.3908  193.9621  175.2626 C.3      13        0    0.0000
    172 H         132.6985  194.9059  173.3595 H        13        0    0.0000
    173 H         134.1488  194.8948  174.3550 H        13        0    0.0000
    174 H         132.3019  194.2964  176.3030 H        13        0    0.0000
    175 H         131.3684  193.8119  174.8929 H        13        0    0.0000
    176 C         132.5680  191.7782  171.6697 C.3      14        0    0.0000
    177 C         132.8259  192.8792  172.6973 C.3      14        0    0.0000
    178 C         133.6599  192.2445  173.8237 C.3      14        0    0.0000
    179 C         133.0990  192.5639  175.2157 C.3      14        0    0.0000
    180 C         133.6908  190.7450  173.4901 C.3      14        0    0.0000
    181 C         133.5935  190.6795  171.9606 C.3      14        0    0.0000
    182 C         134.9257  190.9351  171.2324 C.3      14        0    0.0000
    183 H         131.5573  191.3789  171.8236 H        14        0    0.0000
    184 H         132.6139  192.1547  170.6430 H        14        0    0.0000
    185 H         131.8786  193.2992  173.0529 H        14        0    0.0000
    186 H         133.3904  193.7000  172.2396 H        14        0    0.0000
    187 H         134.6824  192.6410  173.7502 H        14        0    0.0000
    188 H         133.8980  192.5296  175.9654 H        14        0    0.0000
    189 H         132.3683  191.7959  175.4965 H        14        0    0.0000
    190 H         134.5861  190.2551  173.8851 H        14        0    0.0000
    191 H         132.8197  190.2396  173.9271 H        14        0    0.0000
    192 H         133.1917  189.7070  171.6485 H        14        0    0.0000
    193 H         135.6212  191.4998  171.8626 H        14        0    0.0000
    194 H         134.7388  191.5499  170.3435 H        14        0    0.0000
    195 C         135.6009  189.6133  170.7691 C.3      15        0    0.0000
    196 C         136.5793  189.0202  171.7931 C.3      15        0    0.0000
    197 H         134.7952  188.8858  170.6071 H        15        0    0.0000
    198 H         136.0849  189.7665  169.7974 H        15        0    0.0000
    199 H         137.4485  188.5697  171.2998 H        15        0    0.0000
    200 H         136.9612  189.8408  172.4139 H        15        0    0.0000
    201 C         133.2565  185.4885  172.4060 C.3      16        0    0.0000
    202 C         133.7685  186.8655  171.9861 C.3      16        0    0.0000
    203 C         135.3049  186.7941  172.0203 C.3      16        0    0.0000
    204 C         135.9274  187.9801  172.7688 C.3      16        0    0.0000
    205 C         135.6190  185.4256  172.6443 C.3      16        0    0.0000
    206 C         134.4394  184.5302  172.2445 C.3      16        0    0.0000
    207 C         134.5290  183.9706  170.8130 C.3      16        0    0.0000
    208 H         132.9638  185.5261  173.4631 H        16        0    0.0000
    209 H         132.3720  185.1869  171.8363 H        16        0    0.0000
    210 H         133.3628  187.6411  172.6449 H        16        0    0.0000
    211 H         133.4339  187.1000  170.9686 H        16        0    0.0000
    212 H         135.6656  186.7969  170.9820 H        16        0    0.0000
    213 H         136.6772  187.6267  173.4861 H        16        0    0.0000
    214 H         135.1495  188.4902  173.3496 H        16        0    0.0000
    215 H         136.5862  185.0355  172.3125 H        16        0    0.0000
    216 H         135.6546  185.5051  173.7386 H        16        0    0.0000
    217 H         134.3397  183.6975  172.9526 H        16        0    0.0000
    218 H         134.5130  184.7752  170.0701 H        16        0    0.0000
    219 H         133.6509  183.3439  170.6149 H        16        0    0.0000
    220 C         137.8208  182.7817  173.7744 C.3      17        0    0.0000
    221 C         136.5232  183.1430  173.0467 C.3      17        0    0.0000
    222 C         136.9143  183.4478  171.5947 C.3      17        0    0.0000
    223 C         135.7990  183.0976  170.6058 C.3      17        0    0.0000
    224 C         138.2080  182.6484  171.4073 C.3      17        0    0.0000
    225 C         138.9419  182.8834  172.7318 C.3      17        0    0.0000
    226 C         140.0858  181.9043  173.0098 C.3      17        0    0.0000
    227 H         138.0071  183.4546  174.6183 H        17        0    0.0000
    228 H         137.7411  181.7661  174.1802 H        17        0    0.0000
    229 H         136.0311  184.0048  173.5101 H        17        0    0.0000
    230 H         135.8248  182.2996  173.1056 H        17        0    0.0000
    231 H         137.1504  184.5194  171.5213 H        17        0    0.0000
    232 H         135.5220  182.0440  170.7308 H        17        0    0.0000
    233 H         136.1552  183.2106  169.5751 H        17        0    0.0000
    234 H         138.7879  183.0040  170.5497 H        17        0    0.0000
    235 H         137.9935  181.5824  171.2608 H        17        0    0.0000
    236 H         139.3265  183.9136  172.7417 H        17        0    0.0000
    237 H         139.9787  181.4684  174.0100 H        17        0    0.0000
    238 H         141.0379  182.4484  173.0024 H        17        0    0.0000
    239 C         138.4056  181.6157  168.7967 C.3      18        0    0.0000
    240 C         138.7320  182.0465  170.2287 C.3      18        0    0.0000
    241 C         138.9259  180.7551  171.0434 C.3      18        0    0.0000
    242 C         140.1592  180.7663  171.9551 C.3      18        0    0.0000
    243 C         138.9893  179.6447  169.9898 C.3      18        0    0.0000
    244 C         138.0618  180.1239  168.8680 C.3      18        0    0.0000
    245 C         136.5767  179.8591  169.1802 C.3      18        0    0.0000
    246 H         137.6147  182.2306  168.3566 H        18        0    0.0000
    247 H         139.3002  181.7493  168.1750 H        18        0    0.0000
    248 H         139.6187  182.6900  170.2336 H        18        0    0.0000
    249 H         137.9053  182.6311  170.6490 H        18        0    0.0000
    250 H         138.0263  180.5946  171.6547 H        18        0    0.0000
    251 H         140.2298  179.8073  172.4821 H        18        0    0.0000
    252 H         141.0740  180.8701  171.3604 H        18        0    0.0000
    253 H         138.6943  178.6732  170.3996 H        18        0    0.0000
    254 H         140.0112  179.5442  169.6017 H        18        0    0.0000
    255 H         138.3321  179.6250  167.9287 H        18        0    0.0000
    256 H         135.9240  180.3901  168.4784 H        18        0    0.0000
    257 H         136.3423  180.2380  170.1821 H        18        0    0.0000
    258 C         137.9725  175.0775  168.7830 C.3      19        0    0.0000
    259 C         137.3949  176.1127  169.7511 C.3      19        0    0.0000
    260 C         137.5076  177.4797  169.0525 C.3      19        0    0.0000
    261 C         136.2414  178.3398  169.1463 C.3      19        0    0.0000
    262 C         137.8759  177.1395  167.6048 C.3      19        0    0.0000
    263 C         138.7287  175.8707  167.7116 C.3      19        0    0.0000
    264 C         140.1880  176.1747  168.1005 C.3      19        0    0.0000
    265 H         138.5884  174.3354  169.3000 H        19        0    0.0000
    266 H         137.1438  174.5346  168.3106 H        19        0    0.0000
    267 H         136.3628  175.8502  170.0087 H        19        0    0.0000
    268 H         137.9689  176.1237  170.6850 H        19        0    0.0000
    269 H         138.3500  178.0269  169.4994 H        19        0    0.0000
    270 H         135.6037  178.1435  168.2762 H        19        0    0.0000
    271 H         135.6591  178.0685  170.0345 H        19        0    0.0000
    272 H         138.4001  177.9638  167.1105 H        19        0    0.0000
    273 H         136.9715  176.9243  167.0211 H        19        0    0.0000
    274 H         138.7100  175.3332  166.7550 H        19        0    0.0000
    275 H         140.5619  175.4496  168.8318 H        19        0    0.0000
    276 H         140.2400  177.1617  168.5752 H        19        0    0.0000
    277 C         141.1264  176.1844  166.8591 C.3      20        0    0.0000
    278 C         141.3580  177.5803  166.2631 C.3      20        0    0.0000
    279 H         142.0956  175.7911  167.1916 H        20        0    0.0000
    280 H         140.7472  175.4861  166.1038 H        20        0    0.0000
    281 H         141.5135  178.3288  167.0489 H        20        0    0.0000
    282 H         142.2824  177.5491  165.6722 H        20        0    0.0000
    283 C         137.7698  175.6384  166.5706 C.3      21        0    0.0000
    284 C         138.8542  176.6519  166.9332 C.3      21        0    0.0000
    285 C         138.8219  177.7401  165.8461 C.3      21        0    0.0000
    286 C         140.2190  178.0575  165.2969 C.3      21        0    0.0000
    287 C         137.8400  177.2092  164.7903 C.3      21        0    0.0000
    288 C         136.8453  176.3455  165.5763 C.3      21        0    0.0000
    289 C         135.7430  177.1467  166.2927 C.3      21        0    0.0000
    290 H         138.2395  174.7774  166.0778 H        21        0    0.0000
    291 H         137.2483  175.2595  167.4552 H        21        0    0.0000
    292 H         139.8284  176.1571  167.0125 H        21        0    0.0000
    293 H         138.6410  177.1017  167.9101 H        21        0    0.0000
    294 H         138.3977  178.6504  166.2929 H        21        0    0.0000
    295 H         140.3197  179.1330  165.1105 H        21        0    0.0000
    296 H         140.3511  177.5551  164.3310 H        21        0    0.0000
    297 H         137.3591  178.0191  164.2331 H        21        0    0.0000
    298 H         138.3671  176.5779  164.0632 H        21        0    0.0000
    299 H         136.3807  175.6050  164.9127 H        21        0    0.0000
    300 H         135.3633  177.9551  165.6586 H        21        0    0.0000
    301 H         136.1652  177.6218  167.1865 H        21        0    0.0000
    302 C         136.7230  173.4308  165.7923 C.3      22        0    0.0000
    303 C         136.5032  174.5843  166.7699 C.3      22        0    0.0000
    304 C         134.9813  174.7732  166.8940 C.3      22        0    0.0000
    305 C         134.5616  176.2413  166.7425 C.3      22        0    0.0000
    306 C         134.3833  173.8382  165.8315 C.3      22        0    0.0000
    307 C         135.3882  172.6857  165.7102 C.3      22        0    0.0000
    308 C         135.2612  171.6193  166.8134 C.3      22        0    0.0000
    309 H         136.9673  173.8439  164.8053 H        22        0    0.0000
    310 H         137.5597  172.7917  166.0913 H        22        0    0.0000
    311 H         137.0176  175.4856  166.4191 H        22        0    0.0000
    312 H         136.9238  174.3347  167.7512 H        22        0    0.0000
    313 H         134.6771  174.4147  167.8875 H        22        0    0.0000
    314 H         134.1459  176.6177  167.6843 H        22        0    0.0000
    315 H         133.7643  176.3143  165.9930 H        22        0    0.0000
    316 H         133.3762  173.5038  166.0992 H        22        0    0.0000
    317 H         134.3119  174.3554  164.8658 H        22        0    0.0000
    318 H         135.2940  172.2035  164.7288 H        22        0    0.0000
    319 H         134.2444  171.5863  167.2191 H        22        0    0.0000
    320 H         135.9227  171.8827  167.6477 H        22        0    0.0000
    321 C         139.0786  169.2287  165.2287 C.3      23        0    0.0000
    322 C         138.2281  170.2286  166.0160 C.3      23        0    0.0000
    323 C         136.8485  170.2654  165.3346 C.3      23        0    0.0000
    324 C         135.6649  170.2053  166.3081 C.3      23        0    0.0000
    325 C         136.8687  169.0780  164.3667 C.3      23        0    0.0000
    326 C         138.3297  168.9722  163.9164 C.3      23        0    0.0000
    327 C         138.6789  169.9874  162.8116 C.3      23        0    0.0000
    328 H         140.1033  169.5862  165.0897 H        23        0    0.0000
    329 H         139.1392  168.2919  165.7973 H        23        0    0.0000
    330 H         138.1752  169.9287  167.0684 H        23        0    0.0000
    331 H         138.6848  171.2248  165.9857 H        23        0    0.0000
    332 H         136.7814  171.1884  164.7410 H        23        0    0.0000
    333 H         134.8013  169.7568  165.8026 H        23        0    0.0000
    334 H         135.9035  169.5604  167.1616 H        23        0    0.0000
    335 H         136.1753  169.2182  163.5311 H        23        0    0.0000
    336 H         136.5786  168.1560  164.8871 H        23        0    0.0000
    337 H         138.5306  167.9556  163.5551 H        23        0    0.0000
    338 H         139.6652  170.4332  162.9812 H        23        0    0.0000
    339 H         137.9514  170.8076  162.8279 H        23        0    0.0000
    340 C         135.6109  167.1324  162.0162 C.3      24        0    0.0000
    341 C         136.3234  168.4706  162.1541 C.3      24        0    0.0000
    342 C         137.5121  168.3249  161.1984 C.3      24        0    0.0000
    343 C         138.6441  169.3373  161.3980 C.3      24        0    0.0000
    344 C         137.9237  166.8422  161.2859 C.3      24        0    0.0000
    345 C         136.7679  166.1279  162.0136 C.3      24        0    0.0000
    346 C         136.4233  164.7295  161.4922 C.3      24        0    0.0000
    347 H         134.9132  166.9539  162.8403 H        24        0    0.0000
    348 H         135.0436  167.1101  161.0793 H        24        0    0.0000
    349 H         135.6755  169.3089  161.8797 H        24        0    0.0000
    350 H         136.6440  168.6139  163.1918 H        24        0    0.0000
    351 H         137.1249  168.4857  160.1809 H        24        0    0.0000
    352 H         139.6045  168.8412  161.2147 H        24        0    0.0000
    353 H         138.5513  170.1313  160.6475 H        24        0    0.0000
    354 H         138.8552  166.6911  161.8419 H        24        0    0.0000
    355 H         138.0987  166.4509  160.2779 H        24        0    0.0000
    356 H         137.0835  166.0022  163.0603 H        24        0    0.0000
    357 H         135.6829  164.2714  162.1586 H        24        0    0.0000
    358 H         135.9478  164.8209  160.5084 H        24        0    0.0000
    359 C         140.4948  164.9293  163.5573 C.3      25        0    0.0000
    360 C         139.0161  164.6722  163.3101 C.3      25        0    0.0000
    361 C         138.9572  164.4362  161.7995 C.3      25        0    0.0000
    362 C         137.6468  163.7723  161.3697 C.3      25        0    0.0000
    363 C         140.2234  163.6100  161.5084 C.3      25        0    0.0000
    364 C         141.1924  163.8848  162.6768 C.3      25        0    0.0000
    365 C         142.6320  164.2259  162.2716 C.3      25        0    0.0000
    366 H         140.7582  164.8153  164.6135 H        25        0    0.0000
    367 H         140.7431  165.9536  163.2589 H        25        0    0.0000
    368 H         138.6877  163.7834  163.8627 H        25        0    0.0000
    369 H         138.3956  165.5180  163.6214 H        25        0    0.0000
    370 H         139.0584  165.4082  161.2950 H        25        0    0.0000
    371 H         137.7245  163.4161  160.3356 H        25        0    0.0000
    372 H         137.4664  162.8890  161.9939 H        25        0    0.0000
    373 H         139.9982  162.5367  161.4765 H        25        0    0.0000
    374 H         140.6420  163.8751  160.5318 H        25        0    0.0000
    375 H         141.2479  162.9557  163.2634 H        25        0    0.0000
    376 H         143.0757  164.8737  163.0370 H        25        0    0.0000
    377 H         142.6118  164.8068  161.3418 H        25        0    0.0000
    378 C         142.3740  160.3372  164.3800 C.3      26        0    0.0000
    379 C         142.3306  161.8235  164.0169 C.3      26        0    0.0000
    380 C         143.6759  162.1520  163.3450 C.3      26        0    0.0000
    381 C         143.5518  162.9882  162.0654 C.3      26        0    0.0000
    382 C         144.3186  160.7851  163.0887 C.3      26        0    0.0000
    383 C         143.8401  159.9096  164.2519 C.3      26        0    0.0000
    384 C         144.6541  160.1455  165.5383 C.3      26        0    0.0000
    385 H         141.9429  160.1463  165.3673 H        26        0    0.0000
    386 H         141.7715  159.7782  163.6525 H        26        0    0.0000
    387 H         141.4706  162.0261  163.3690 H        26        0    0.0000
    388 H         142.2067  162.4333  164.9195 H        26        0    0.0000
    389 H         144.3009  162.6923  164.0704 H        26        0    0.0000
    390 H         144.5457  163.3396  161.7635 H        26        0    0.0000
    391 H         143.1684  162.3741  161.2424 H        26        0    0.0000
    392 H         145.4097  160.8502  163.0263 H        26        0    0.0000
    393 H         143.9569  160.3645  162.1415 H        26        0    0.0000
    394 H         143.9053  158.8518  163.9673 H        26        0    0.0000
    395 H         144.1090  159.7946  166.4216 H        26        0    0.0000
    396 H         144.8192  161.2212  165.6723 H        26        0    0.0000
    397 C         146.0432  159.4463  165.4792 C.3      27        0    0.0000
    398 C         146.3593  158.5819  166.7082 C.3      27        0    0.0000
    399 H         146.0318  158.7930  164.5974 H        27        0    0.0000
    400 H         146.8260  160.1938  165.3053 H        27        0    0.0000
    401 H         146.8768  159.1619  167.4813 H        27        0    0.0000
    402 H         145.4084  158.2529  167.1467 H        27        0    0.0000
    403 C         145.9456  155.3303  163.3810 C.3      28        0    0.0000
    404 C         146.1272  156.6594  164.0981 C.3      28        0    0.0000
    405 C         146.4189  156.2483  165.5468 C.3      28        0    0.0000
    406 C         147.1796  157.2861  166.3818 C.3      28        0    0.0000
    407 C         147.0779  154.8562  165.4607 C.3      28        0    0.0000
    408 C         147.0628  154.4672  163.9711 C.3      28        0    0.0000
    409 C         146.8443  152.9765  163.7008 C.3      28        0    0.0000
    410 H         144.9586  154.9087  163.6068 H        28        0    0.0000
    411 H         146.0333  155.4352  162.2953 H        28        0    0.0000
    412 H         146.9621  157.2071  163.6479 H        28        0    0.0000
    413 H         145.2350  157.2890  164.0235 H        28        0    0.0000
    414 H         145.4468  156.1049  166.0419 H        28        0    0.0000
    415 H         147.4937  156.8229  167.3248 H        28        0    0.0000
    416 H         148.0959  157.5708  165.8513 H        28        0    0.0000
    417 H         146.4946  154.1475  166.0618 H        28        0    0.0000
    418 H         148.0997  154.8395  165.8543 H        28        0    0.0000
    419 H         148.0160  154.7850  163.5239 H        28        0    0.0000
    420 H         145.9150  152.8263  163.1387 H        28        0    0.0000
    421 H         147.6581  152.5996  163.0698 H        28        0    0.0000
    422 C         148.5727  154.0676  167.7538 C.3      29        0    0.0000
    423 C         148.3616  153.7585  166.2782 C.3      29        0    0.0000
    424 C         147.0688  152.9360  166.2830 C.3      29        0    0.0000
    425 C         146.7947  152.1347  165.0067 C.3      29        0    0.0000
    426 C         147.1154  152.1144  167.5862 C.3      29        0    0.0000
    427 C         148.2448  152.7337  168.4327 C.3      29        0    0.0000
    428 C         147.9748  152.8113  169.9385 C.3      29        0    0.0000
    429 H         149.5968  154.3935  167.9607 H        29        0    0.0000
    430 H         147.8917  154.8671  168.0655 H        29        0    0.0000
    431 H         148.2672  154.6694  165.6792 H        29        0    0.0000
    432 H         149.2131  153.1857  165.8946 H        29        0    0.0000
    433 H         146.2375  153.6492  166.3887 H        29        0    0.0000
    434 H         147.5268  151.3220  164.9300 H        29        0    0.0000
    435 H         145.8078  151.6632  165.0845 H        29        0    0.0000
    436 H         147.3271  151.0537  167.4135 H        29        0    0.0000
    437 H         146.1394  152.1579  168.0814 H        29        0    0.0000
    438 H         149.1257  152.0864  168.3062 H        29        0    0.0000
    439 H         148.9287  152.9201  170.4680 H        29        0    0.0000
    440 H         147.3912  153.7146  170.1519 H        29        0    0.0000
    441 C         148.9433  148.4129  169.4037 C.3      30        0    0.0000
    442 C         148.9733  149.8609  169.8686 C.3      30        0    0.0000
    443 C         147.5107  150.2920  169.7412 C.3      30        0    0.0000
    444 C         147.2185  151.5782  170.5178 C.3      30        0    0.0000
    445 C         146.7226  149.0584  170.2186 C.3      30        0    0.0000
    446 C         147.6719  147.8536  170.0546 C.3      30        0    0.0000
    447 C         147.0654  146.6275  169.3604 C.3      30        0    0.0000
    448 H         149.8377  147.8649  169.7164 H        30        0    0.0000
    449 H         148.8961  148.3805  168.3099 H        30        0    0.0000
    450 H         149.3137  149.9185  170.9097 H        30        0    0.0000
    451 H         149.6404  150.4743  169.2554 H        30        0    0.0000
    452 H         147.2896  150.4490  168.6754 H        30        0    0.0000
    453 H         146.1413  151.7830  170.5188 H        30        0    0.0000
    454 H         147.5141  151.4442  171.5652 H        30        0    0.0000
    455 H         146.4427  149.1509  171.2754 H        30        0    0.0000
    456 H         145.7914  148.9517  169.6523 H        30        0    0.0000
    457 H         147.9464  147.5302  171.0698 H        30        0    0.0000
    458 H         146.2271  146.9501  168.7316 H        30        0    0.0000
    459 H         146.6475  145.9581  170.1217 H        30        0    0.0000
    460 C         146.8941  142.5701  166.9385 C.3      31        0    0.0000
    461 C         146.6211  144.0170  167.3197 C.3      31        0    0.0000
    462 C         147.7261  144.3347  168.3353 C.3      31        0    0.0000
    463 C         148.0692  145.8221  168.4863 C.3      31        0    0.0000
    464 C         148.9092  143.4167  167.9651 C.3      31        0    0.0000
    465 C         148.4178  142.5326  166.8044 C.3      31        0    0.0000
    466 C         148.9630  141.1023  166.8138 C.3      31        0    0.0000
    467 H         146.5499  141.8967  167.7329 H        31        0    0.0000
    468 H         146.3898  142.2893  166.0088 H        31        0    0.0000
    469 H         146.6859  144.6492  166.4276 H        31        0    0.0000
    470 H         145.6224  144.1450  167.7488 H        31        0    0.0000
    471 H         147.3645  143.9991  169.3187 H        31        0    0.0000
    472 H         149.0695  145.9136  168.9262 H        31        0    0.0000
    473 H         148.1205  146.2807  167.4916 H        31        0    0.0000
    474 H         149.1778  142.8107  168.8394 H        31        0    0.0000
    475 H         149.8084  143.9706  167.6753 H        31        0    0.0000
    476 H         148.6924  143.0233  165.8593 H        31        0    0.0000
    477 H         148.4830  140.5094  166.0262 H        31        0    0.0000
    478 H         150.0349  141.1217  166.5839 H        31        0    0.0000
    479 C         148.7590  140.3953  168.1832 C.3      32        0    0.0000
    480 C         149.1594  141.2516  169.3931 C.3      32        0    0.0000
    481 H         147.6884  140.1683  168.2661 H        32        0    0.0000
    482 H         149.2844  139.4331  168.1841 H        32        0    0.0000
    483 H         149.8988  140.7375  170.0183 H        32        0    0.0000
    484 H         149.6434  142.1631  169.0199 H        32        0    0.0000
    485 C         148.5042  139.9455  173.4463 C.3      33        0    0.0000
    486 C         149.1524  140.5263  172.1905 C.3      33        0    0.0000
    487 C         148.2968  141.7342  171.7710 C.3      33        0    0.0000
    488 C         147.9485  141.7115  170.2768 C.3      33        0    0.0000
    489 C         147.0736  141.6884  172.6996 C.3      33        0    0.0000
    490 C         147.5846  141.0406  173.9928 C.3      33        0    0.0000
    491 C         148.3384  142.0053  174.9264 C.3      33        0    0.0000
    492 H         147.8997  139.0743  173.1631 H        33        0    0.0000
    493 H         149.2480  139.6008  174.1715 H        33        0    0.0000
    494 H         149.2234  139.7619  171.4089 H        33        0    0.0000
    495 H         150.1740  140.8580  172.4102 H        33        0    0.0000
    496 H         148.8700  142.6459  171.9911 H        33        0    0.0000
    497 H         147.6079  142.7008  169.9500 H        33        0    0.0000
    498 H         147.1150  141.0186  170.1098 H        33        0    0.0000
    499 H         146.6413  142.6812  172.8581 H        33        0    0.0000
    500 H         146.2896  141.0540  172.2659 H        33        0    0.0000
    501 H         146.7514  140.5836  174.5417 H        33        0    0.0000
    502 H         148.7339  142.8647  174.3744 H        33        0    0.0000
    503 H         149.2024  141.4868  175.3596 H        33        0    0.0000
    504 C         144.3598  142.6703  173.9264 C.3      34        0    0.0000
    505 C         145.8588  142.8217  174.1351 C.3      34        0    0.0000
    506 C         145.9999  142.7692  175.6577 C.3      34        0    0.0000
    507 C         147.4430  142.5061  176.0948 C.3      34        0    0.0000
    508 C         144.9911  141.6860  176.0816 C.3      34        0    0.0000
    509 C         143.9656  141.5827  174.9338 C.3      34        0    0.0000
    510 C         142.4932  141.5908  175.3639 C.3      34        0    0.0000
    511 H         144.1174  142.3827  172.8985 H        34        0    0.0000
    512 H         143.8632  143.6245  174.1331 H        34        0    0.0000
    513 H         146.3943  141.9912  173.6590 H        34        0    0.0000
    514 H         146.2381  143.7589  173.7164 H        34        0    0.0000
    515 H         145.6622  143.7319  176.0682 H        34        0    0.0000
    516 H         147.8811  143.4165  176.5209 H        34        0    0.0000
    517 H         147.4487  141.7520  176.8908 H        34        0    0.0000
    518 H         145.4830  140.7137  176.2091 H        34        0    0.0000
    519 H         144.5343  141.9386  177.0443 H        34        0    0.0000
    520 H         144.1397  140.6130  174.4440 H        34        0    0.0000
    521 H         141.8664  141.8102  174.4915 H        34        0    0.0000
    522 H         142.3356  142.4084  176.0775 H        34        0    0.0000
    523 C         144.1218  138.3630  178.4905 C.3      35        0    0.0000
    524 C         143.5972  139.6804  177.9133 C.3      35        0    0.0000
    525 C         143.1683  139.3783  176.4715 C.3      35        0    0.0000
    526 C         142.0060  140.2632  176.0125 C.3      35        0    0.0000
    527 C         142.8534  137.8792  176.5087 C.3      35        0    0.0000
    528 C         143.9880  137.3198  177.3734 C.3      35        0    0.0000
    529 C         143.7392  135.9111  177.9193 C.3      35        0    0.0000
    530 H         145.1627  138.4561  178.8184 H        35        0    0.0000
    531 H         143.5275  138.0876  179.3700 H        35        0    0.0000
    532 H         144.3639  140.4622  177.9394 H        35        0    0.0000
    533 H         142.7529  140.0331  178.5176 H        35        0    0.0000
    534 H         144.0362  139.5382  175.8152 H        35        0    0.0000
    535 H         141.3746  140.5076  176.8750 H        35        0    0.0000
    536 H         141.3728  139.7204  175.3009 H        35        0    0.0000
    537 H         142.8468  137.4377  175.5070 H        35        0    0.0000
    538 H         141.8770  137.6942  176.9739 H        35        0    0.0000
    539 H         144.9160  137.3289  176.7832 H        35        0    0.0000
    540 H         143.4710  135.9567  178.9813 H        35        0    0.0000
    541 H         144.6654  135.3279  177.8520 H        35        0    0.0000
    542 C         142.8833  131.4485  177.9026 C.3      36        0    0.0000
    543 C         143.5280  132.8225  177.7856 C.3      36        0    0.0000
    544 C         142.3202  133.7576  177.6661 C.3      36        0    0.0000
    545 C         142.6259  135.1621  177.1366 C.3      36        0    0.0000
    546 C         141.2680  132.9617  176.8694 C.3      36        0    0.0000
    547 C         141.7679  131.5039  176.8536 C.3      36        0    0.0000
    548 C         140.6824  130.4320  176.9909 C.3      36        0    0.0000
    549 H         143.5970  130.6435  177.7019 H        36        0    0.0000
    550 H         142.4898  131.3095  178.9156 H        36        0    0.0000
    551 H         144.1469  133.0593  178.6566 H        36        0    0.0000
    552 H         144.1659  132.8573  176.8954 H        36        0    0.0000
    553 H         141.9159  133.8877  178.6813 H        36        0    0.0000
    554 H         142.9228  135.0909  176.0835 H        36        0    0.0000
    555 H         141.7095  135.7634  177.1656 H        36        0    0.0000
    556 H         141.1521  133.3200  175.8409 H        36        0    0.0000
    557 H         140.2881  133.0706  177.3467 H        36        0    0.0000
    558 H         142.2431  131.3435  175.8741 H        36        0    0.0000
    559 H         141.1546  129.4424  176.9930 H        36        0    0.0000
    560 H         140.1865  130.5464  177.9622 H        36        0    0.0000
    561 C         137.8831  127.1940  175.5538 C.3      37        0    0.0000
    562 C         138.0497  128.6057  174.9862 C.3      37        0    0.0000
    563 C         138.4398  129.5119  176.1677 C.3      37        0    0.0000
    564 C         139.6010  130.4683  175.8696 C.3      37        0    0.0000
    565 C         138.7634  128.5380  177.3053 C.3      37        0    0.0000
    566 C         137.8212  127.3512  177.0770 C.3      37        0    0.0000
    567 C         136.3978  127.6220  177.6003 C.3      37        0    0.0000
    568 H         137.0147  126.6832  175.1269 H        37        0    0.0000
    569 H         138.7675  126.6003  175.2892 H        37        0    0.0000
    570 H         138.7989  128.6024  174.1869 H        37        0    0.0000
    571 H         137.1078  128.9534  174.5459 H        37        0    0.0000
    572 H         137.5560  130.0968  176.4603 H        37        0    0.0000
    573 H         140.0727  130.1824  174.9219 H        37        0    0.0000
    574 H         139.2310  131.4924  175.7440 H        37        0    0.0000
    575 H         138.6348  128.9999  178.2896 H        37        0    0.0000
    576 H         139.8045  128.1978  177.2323 H        37        0    0.0000
    577 H         138.2277  126.4587  177.5693 H        37        0    0.0000
    578 H         135.8487  128.2891  176.9266 H        37        0    0.0000
    579 H         136.4572  128.1282  178.5712 H        37        0    0.0000
    580 C         137.9448  123.8530  176.1146 C.3      38        0    0.0000
    581 C         137.5023  125.2865  176.3652 C.3      38        0    0.0000
    582 C         136.0871  125.1303  176.9358 C.3      38        0    0.0000
    583 C         135.5918  126.3043  177.7898 C.3      38        0    0.0000
    584 C         136.0667  123.7525  177.6292 C.3      38        0    0.0000
    585 C         137.4426  123.1169  177.3584 C.3      38        0    0.0000
    586 C         137.4190  121.5992  177.1607 C.3      38        0    0.0000
    587 H         137.4711  123.4628  175.2055 H        38        0    0.0000
    588 H         139.0298  123.7738  175.9967 H        38        0    0.0000
    589 H         138.1852  125.7611  177.0781 H        38        0    0.0000
    590 H         137.5096  125.8827  175.4473 H        38        0    0.0000
    591 H         135.4011  125.0601  176.0785 H        38        0    0.0000
    592 H         134.5395  126.4993  177.5505 H        38        0    0.0000
    593 H         135.6252  126.0172  178.8475 H        38        0    0.0000
    594 H         135.2587  123.1482  177.1984 H        38        0    0.0000
    595 H         135.8753  123.8161  178.7056 H        38        0    0.0000
    596 H         138.1072  123.3669  178.1982 H        38        0    0.0000
    597 H         138.4291  121.1875  177.2721 H        38        0    0.0000
    598 H         136.8044  121.1413  177.9448 H        38        0    0.0000
    599 C         137.7027  117.5108  175.3300 C.3      39        0    0.0000
    600 C         137.9242  118.8450  176.0288 C.3      39        0    0.0000
    601 C         136.7199  119.6745  175.5713 C.3      39        0    0.0000
    602 C         136.8481  121.1872  175.7748 C.3      39        0    0.0000
    603 C         136.4399  119.2199  174.1254 C.3      39        0    0.0000
    604 C         137.2601  117.9306  173.9245 C.3      39        0    0.0000
    605 C         136.5791  116.8372  173.0956 C.3      39        0    0.0000
    606 H         138.6129  116.9036  175.3103 H        39        0    0.0000
    607 H         136.9262  116.9430  175.8542 H        39        0    0.0000
    608 H         137.9586  118.7356  177.1172 H        39        0    0.0000
    609 H         138.8739  119.2815  175.7006 H        39        0    0.0000
    610 H         135.8603  119.3495  176.1767 H        39        0    0.0000
    611 H         137.4937  121.6005  174.9909 H        39        0    0.0000
    612 H         135.8625  121.6506  175.6481 H        39        0    0.0000
    613 H         136.7393  119.9642  173.3797 H        39        0    0.0000
    614 H         135.3638  119.0650  173.9924 H        39        0    0.0000
    615 H         138.1701  118.2173  173.3759 H        39        0    0.0000
    616 H         136.9457  115.8577  173.4249 H        39        0    0.0000
    617 H         135.5014  116.8540  173.2966 H        39        0    0.0000
    618 C         134.0153  115.1877  169.8746 C.3      40        0    0.0000
    619 C         134.7744  115.4169  171.1838 C.3      40        0    0.0000
    620 C         136.2225  115.7675  170.7974 C.3      40        0    0.0000
    621 C         136.8038  116.9651  171.5590 C.3      40        0    0.0000
    622 C         136.1665  116.0090  169.2855 C.3      40        0    0.0000
    623 C         135.0812  115.0515  168.7818 C.3      40        0    0.0000
    624 C         135.5993  113.6101  168.6178 C.3      40        0    0.0000
    625 H         133.3387  114.3304  169.9408 H        40        0    0.0000
    626 H         133.3968  116.0701  169.6658 H        40        0    0.0000
    627 H         134.2865  116.2059  171.7668 H        40        0    0.0000
    628 H         134.7625  114.5075  171.7959 H        40        0    0.0000
    629 H         136.8514  114.8842  170.9789 H        40        0    0.0000
    630 H         137.8819  117.0276  171.3689 H        40        0    0.0000
    631 H         136.3625  117.9005  171.1961 H        40        0    0.0000
    632 H         137.1370  115.8411  168.8072 H        40        0    0.0000
    633 H         135.8678  117.0440  169.0748 H        40        0    0.0000
    634 H         134.6906  115.4108  167.8213 H        40        0    0.0000
    635 H         135.1107  112.9310  169.3252 H        40        0    0.0000
    636 H         136.6729  113.5820  168.8389 H        40        0    0.0000
    637 C         132.4861  115.1196  166.0769 C.3      41        0    0.0000
    638 C         133.2283  114.4886  167.2576 C.3      41        0    0.0000
    639 C         133.9325  113.2324  166.7142 C.3      41        0    0.0000
    640 C         135.3895  113.0824  167.1689 C.3      41        0    0.0000
    641 C         133.8057  113.3518  165.1920 C.3      41        0    0.0000
    642 C         132.4642  114.0589  164.9709 C.3      41        0    0.0000
    643 C         131.2673  113.0953  165.0798 C.3      41        0    0.0000
    644 H         131.4932  115.4782  166.3646 H        41        0    0.0000
    645 H         133.0542  115.9915  165.7280 H        41        0    0.0000
    646 H         133.9258  115.2131  167.6923 H        41        0    0.0000
    647 H         132.5209  114.2068  168.0462 H        41        0    0.0000
    648 H         133.3609  112.3502  167.0360 H        41        0    0.0000
    649 H         135.6716  112.0231  167.1401 H        41        0    0.0000
    650 H         136.0614  113.6088  166.4813 H        41        0    0.0000
    651 H         133.8585  112.3761  164.6983 H        41        0    0.0000
    652 H         134.6168  113.9718  164.7886 H        41        0    0.0000
    653 H         132.4590  114.5377  163.9835 H        41        0    0.0000
    654 H         130.3203  113.6444  165.1268 H        41        0    0.0000
    655 H         131.3476  112.5187  166.0089 H        41        0    0.0000
    656 C         133.1969  113.6795  161.2334 C.3      42        0    0.0000
    657 C         132.9274  113.6017  162.7354 C.3      42        0    0.0000
    658 C         132.4924  112.1559  163.0311 C.3      42        0    0.0000
    659 C         131.2227  112.0930  163.8902 C.3      42        0    0.0000
    660 C         132.3462  111.5011  161.6488 C.3      42        0    0.0000
    661 C         133.3566  112.2335  160.7569 C.3      42        0    0.0000
    662 C         134.8068  111.7394  160.9093 C.3      42        0    0.0000
    663 H         132.3257  114.1284  160.7394 H        42        0    0.0000
    664 H         134.0605  114.3110  161.0024 H        42        0    0.0000
    665 H         132.1742  114.3418  163.0271 H        42        0    0.0000
    666 H         133.8404  113.8331  163.2966 H        42        0    0.0000
    667 H         133.3132  111.6603  163.5686 H        42        0    0.0000
    668 H         131.0698  111.0761  164.2700 H        42        0    0.0000
    669 H         130.3522  112.3326  163.2677 H        42        0    0.0000
    670 H         132.5115  110.4199  161.6874 H        42        0    0.0000
    671 H         131.3347  111.6649  161.2548 H        42        0    0.0000
    672 H         133.0572  112.1562  159.7038 H        42        0    0.0000
    673 H         135.1696  111.8817  161.9329 H        42        0    0.0000
    674 H         135.4607  112.3340  160.2598 H        42        0    0.0000
    675 C         134.9600  110.2452  160.5070 C.3      43        0    0.0000
    676 C         136.4099  109.8165  160.2400 C.3      43        0    0.0000
    677 H         134.5782  109.6503  161.3466 H        43        0    0.0000
    678 H         134.3146  110.0257  159.6484 H        43        0    0.0000
    679 H         136.8982  110.4864  159.5225 H        43        0    0.0000
    680 H         136.9691  109.9027  161.1805 H        43        0    0.0000
    681 C         140.0537  107.7836  158.3755 C.3      44        0    0.0000
    682 C         138.8713  108.7000  158.6573 C.3      44        0    0.0000
    683 C         138.0064  107.8607  159.6035 C.3      44        0    0.0000
    684 C         136.5571  108.3309  159.7604 C.3      44        0    0.0000
    685 C         138.1851  106.4043  159.1319 C.3      44        0    0.0000
    686 C         139.3871  106.4198  158.1674 C.3      44        0    0.0000
    687 C         140.3223  105.2102  158.2583 C.3      44        0    0.0000
    688 H         140.6184  108.1040  157.4945 H        44        0    0.0000
    689 H         140.7342  107.7830  159.2341 H        44        0    0.0000
    690 H         139.1851  109.6433  159.1150 H        44        0    0.0000
    691 H         138.3518  108.9323  157.7211 H        44        0    0.0000
    692 H         138.4666  107.9286  160.6008 H        44        0    0.0000
    693 H         136.0380  108.2174  158.8013 H        44        0    0.0000
    694 H         136.0437  107.6775  160.4757 H        44        0    0.0000
    695 H         137.3036  106.0140  158.6120 H        44        0    0.0000
    696 H         138.3441  105.7555  160.0000 H        44        0    0.0000
    697 H         138.9737  106.4192  157.1475 H        44        0    0.0000
    698 H         140.2678  104.6442  157.3208 H        44        0    0.0000
    699 H         141.3562  105.5628  158.3537 H        44        0    0.0000
    700 C         141.3030  100.7984  158.6294 C.3      45        0    0.0000
    701 C         140.2801  101.7191  159.2999 C.3      45        0    0.0000
    702 C         140.9839  103.0669  159.5060 C.3      45        0    0.0000
    703 C         140.0107  104.2473  159.4432 C.3      45        0    0.0000
    704 C         142.0603  103.0681  158.4155 C.3      45        0    0.0000
    705 C         142.5823  101.6281  158.4584 C.3      45        0    0.0000
    706 C         143.3902  101.2053  157.2283 C.3      45        0    0.0000
    707 H         141.4926   99.9042  159.2329 H        45        0    0.0000
    708 H         140.9115  100.4607  157.6624 H        45        0    0.0000
    709 H         139.9349  101.3064  160.2539 H        45        0    0.0000
    710 H         139.4008  101.8205  158.6526 H        45        0    0.0000
    711 H         141.4793  103.0481  160.4877 H        45        0    0.0000
    712 H         140.0700  104.8156  160.3792 H        45        0    0.0000
    713 H         138.9792  103.8857  159.3579 H        45        0    0.0000
    714 H         142.8511  103.7961  158.6222 H        45        0    0.0000
    715 H         141.6258  103.2994  157.4348 H        45        0    0.0000
    716 H         143.1948  101.5038  159.3634 H        45        0    0.0000
    717 H         143.7730  102.0881  156.7030 H        45        0    0.0000
    718 H         142.7318  100.6803  156.5258 H        45        0    0.0000
    719 C         147.5217  100.6761  155.2489 C.3      46        0    0.0000
    720 C         146.2641  101.2440  155.8887 C.3      46        0    0.0000
    721 C         145.5503  100.0029  156.4395 C.3      46        0    0.0000
    722 C         144.5732  100.2667  157.5922 C.3      46        0    0.0000
    723 C         146.6647   98.9788  156.7377 C.3      46        0    0.0000
    724 C         147.9788   99.6266  156.2642 C.3      46        0    0.0000
    725 C         148.9950   98.6501  155.6670 C.3      46        0    0.0000
    726 H         147.2814  100.2145  154.2834 H        46        0    0.0000
    727 H         148.2799  101.4471  155.0809 H        46        0    0.0000
    728 H         146.5420  101.9467  156.6816 H        46        0    0.0000
    729 H         145.6455  101.7838  155.1649 H        46        0    0.0000
    730 H         144.9521   99.5846  155.6163 H        46        0    0.0000
    731 H         144.1672   99.3094  157.9405 H        46        0    0.0000
    732 H         145.1231  100.7001  158.4359 H        46        0    0.0000
    733 H         146.4566   98.0540  156.1854 H        46        0    0.0000
    734 H         146.7270   98.7080  157.7970 H        46        0    0.0000
    735 H         148.4314  100.1491  157.1195 H        46        0    0.0000
    736 H         149.7143   99.1895  155.0394 H        46        0    0.0000
    737 H         149.5704   98.1857  156.4767 H        46        0    0.0000
    738 C         150.6387   96.5390  151.9809 C.3      47        0    0.0000
    739 C         150.1328   97.5749  152.9751 C.3      47        0    0.0000
    740 C         149.2907   96.7370  153.9429 C.3      47        0    0.0000
    741 C         148.3220   97.5289  154.8265 C.3      47        0    0.0000
    742 C         148.6499   95.6364  153.0749 C.3      47        0    0.0000
    743 C         149.3996   95.6737  151.7288 C.3      47        0    0.0000
    744 C         149.6699   94.3101  151.0854 C.3      47        0    0.0000
    745 H         151.0109   97.0021  151.0618 H        47        0    0.0000
    746 H         151.4577   95.9655  152.4288 H        47        0    0.0000
    747 H         150.9543   98.0888  153.4837 H        47        0    0.0000
    748 H         149.5326   98.3275  152.4520 H        47        0    0.0000
    749 H         149.9938   96.2334  154.6234 H        47        0    0.0000
    750 H         147.5475   97.9793  154.1944 H        47        0    0.0000
    751 H         147.8107   96.8375  155.5068 H        47        0    0.0000
    752 H         147.5804   95.7987  152.9028 H        47        0    0.0000
    753 H         148.7377   94.6708  153.5845 H        47        0    0.0000
    754 H         148.7602   96.2293  151.0263 H        47        0    0.0000
    755 H         149.2435   93.5241  151.7200 H        47        0    0.0000
    756 H         149.1460   94.2574  150.1237 H        47        0    0.0000
    757 C         152.1916   91.4322  148.2566 C.3      48        0    0.0000
    758 C         151.3340   92.6210  148.6626 C.3      48        0    0.0000
    759 C         151.4521   92.6425  150.1919 C.3      48        0    0.0000
    760 C         151.1789   94.0005  150.8510 C.3      48        0    0.0000
    761 C         152.8241   92.0149  150.5131 C.3      48        0    0.0000
    762 C         153.4160   91.5670  149.1642 C.3      48        0    0.0000
    763 C         154.2364   90.2761  149.2221 C.3      48        0    0.0000
    764 H         151.6567   90.4944  148.4501 H        48        0    0.0000
    765 H         152.4576   91.4623  147.1956 H        48        0    0.0000
    766 H         151.7319   93.5329  148.2046 H        48        0    0.0000
    767 H         150.2961   92.5071  148.3343 H        48        0    0.0000
    768 H         150.6914   91.9503  150.5826 H        48        0    0.0000
    769 H         151.6989   94.0387  151.8156 H        48        0    0.0000
    770 H         151.6113   94.7937  150.2296 H        48        0    0.0000
    771 H         152.6770   91.1604  151.1853 H        48        0    0.0000
    772 H         153.5037   92.7058  151.0231 H        48        0    0.0000
    773 H         154.0434   92.3830  148.7769 H        48        0    0.0000
    774 H         153.9535   89.6873  150.1028 H        48        0    0.0000
    775 H         154.0055   89.6604  148.3447 H        48        0    0.0000
    776 C         156.9342   90.0611  146.2245 C.3      49        0    0.0000
    777 C         156.0690   89.1836  147.1332 C.3      49        0    0.0000
    778 C         156.5618   89.4184  148.5653 C.3      49        0    0.0000
    779 C         155.7674   90.5434  149.2552 C.3      49        0    0.0000
    780 C         158.0474   89.7319  148.3465 C.3      49        0    0.0000
    781 C         158.0686   90.6197  147.0996 C.3      49        0    0.0000
    782 C         159.4431   90.6394  146.4211 C.3      49        0    0.0000
    783 H         157.3085   89.4665  145.3834 H        49        0    0.0000
    784 H         156.3420   90.8817  145.8036 H        49        0    0.0000
    785 H         156.2273   88.1317  146.8637 H        49        0    0.0000
    786 H         155.0016   89.3898  147.0047 H        49        0    0.0000
    787 H         156.4551   88.4964  149.1512 H        49        0    0.0000
    788 H         155.9622   91.4911  148.7386 H        49        0    0.0000
    789 H         156.0919   90.6807  150.2922 H        49        0    0.0000
    790 H         158.5919   88.7975  148.1574 H        49        0    0.0000
    791 H         158.5226   90.2202  149.2025 H        49        0    0.0000
    792 H         157.8031   91.6435  147.3984 H        49        0    0.0000
    793 H         159.9064   91.6272  146.5269 H        49        0    0.0000
    794 H         159.3212   90.4587  145.3466 H        49        0    0.0000
    795 C         160.3923   89.5543  147.0056 C.3      50        0    0.0000
    796 C         161.8294   89.6285  146.4701 C.3      50        0    0.0000
    797 H         160.4249   89.7132  148.0911 H        50        0    0.0000
    798 H         159.9586   88.5599  146.8474 H        50        0    0.0000
    799 H         161.8508   89.5684  145.3756 H        50        0    0.0000
    800 H         162.2425   90.6092  146.7386 H        50        0    0.0000
    801 C         160.6802   85.7323  148.4745 C.3      51        0    0.0000
    802 C         160.7945   86.9972  147.6375 C.3      51        0    0.0000
    803 C         162.1287   87.6056  148.0877 C.3      51        0    0.0000
    804 C         162.7922   88.5501  147.0774 C.3      51        0    0.0000
    805 C         162.9951   86.4157  148.5492 C.3      51        0    0.0000
    806 C         162.1015   85.1670  148.4370 C.3      51        0    0.0000
    807 C         162.3328   84.1144  149.5240 C.3      51        0    0.0000
    808 H         160.3801   85.9812  149.4996 H        51        0    0.0000
    809 H         159.9458   85.0334  148.0625 H        51        0    0.0000
    810 H         160.7985   86.7335  146.5744 H        51        0    0.0000
    811 H         159.9555   87.6785  147.8102 H        51        0    0.0000
    812 H         161.9205   88.2083  148.9844 H        51        0    0.0000
    813 H         163.6293   89.0627  147.5662 H        51        0    0.0000
    814 H         163.2207   87.9573  146.2607 H        51        0    0.0000
    815 H         163.3114   86.5855  149.5859 H        51        0    0.0000
    816 H         163.9073   86.2929  147.9558 H        51        0    0.0000
    817 H         162.2662   84.7149  147.4480 H        51        0    0.0000
    818 H         161.9156   84.4580  150.4781 H        51        0    0.0000
    819 H         161.7963   83.1957  149.2588 H        51        0    0.0000
    820 C         166.1675   86.0843  149.8652 C.3      52        0    0.0000
    821 C         164.8960   85.9753  149.0192 C.3      52        0    0.0000
    822 C         164.7240   84.4910  148.6784 C.3      52        0    0.0000
    823 C         163.8378   83.7758  149.7157 C.3      52        0    0.0000
    824 C         166.1767   84.0002  148.6378 C.3      52        0    0.0000
    825 C         166.8495   84.7069  149.8173 C.3      52        0    0.0000
    826 C         168.3748   84.7583  149.6732 C.3      52        0    0.0000
    827 H         166.8071   86.8820  149.4708 H        52        0    0.0000
    828 H         165.9205   86.3483  150.8999 H        52        0    0.0000
    829 H         165.0382   86.5454  148.0924 H        52        0    0.0000
    830 H         164.0276   86.4047  149.5291 H        52        0    0.0000
    831 H         164.2651   84.3879  147.6867 H        52        0    0.0000
    832 H         164.1357   84.0914  150.7229 H        52        0    0.0000
    833 H         163.9759   82.6901  149.6751 H        52        0    0.0000
    834 H         166.6396   84.3130  147.6927 H        52        0    0.0000
    835 H         166.2735   82.9125  148.7055 H        52        0    0.0000
    836 H         166.5959   84.1629  150.7380 H        52        0    0.0000
    837 H         168.8447   84.9243  150.6496 H        52        0    0.0000
    838 H         168.6521   85.6080  149.0382 H        52        0    0.0000
    839 C         168.9401   83.4552  149.0387 C.3      53        0    0.0000
    840 C         170.1534   82.8758  149.7801 C.3      53        0    0.0000
    841 H         169.2544   83.7101  148.0185 H        53        0    0.0000
    842 H         168.1390   82.7128  148.9436 H        53        0    0.0000
    843 H         171.0442   83.4331  149.4630 H        53        0    0.0000
    844 H         170.0641   83.0179  150.8635 H        53        0    0.0000
    845 C         172.8127   80.0461  152.0777 C.3      54        0    0.0000
    846 C         171.6715   80.9530  151.6433 C.3      54        0    0.0000
    847 C         171.7184   80.8557  150.1171 C.3      54        0    0.0000
    848 C         170.4296   81.3645  149.4665 C.3      54        0    0.0000
    849 C         172.0296   79.3709  149.8544 C.3      54        0    0.0000
    850 C         172.6832   78.8352  151.1449 C.3      54        0    0.0000
    851 C         173.9688   78.0231  150.9434 C.3      54        0    0.0000
    852 H         172.7298   79.7612  153.1313 H        54        0    0.0000
    853 H         173.7662   80.5689  151.9462 H        54        0    0.0000
    854 H         170.7181   80.5778  152.0348 H        54        0    0.0000
    855 H         171.8069   81.9797  151.9969 H        54        0    0.0000
    856 H         172.5699   81.4531  149.7600 H        54        0    0.0000
    857 H         170.4730   81.2231  148.3801 H        54        0    0.0000
    858 H         169.5822   80.7695  149.8275 H        54        0    0.0000
    859 H         171.1125   78.8022  149.6564 H        54        0    0.0000
    860 H         172.6680   79.2600  148.9716 H        54        0    0.0000
    861 H         171.9543   78.1517  151.6053 H        54        0    0.0000
    862 H         174.4733   77.9052  151.9098 H        54        0    0.0000
    863 H         174.6514   78.5912  150.3002 H        54        0    0.0000
    864 C         176.0328   74.1643  152.0827 C.3      55        0    0.0000
    865 C         175.3906   75.5411  152.0080 C.3      55        0    0.0000
    866 C         174.8961   75.6279  150.5586 C.3      55        0    0.0000
    867 C         173.7486   76.6166  150.3160 C.3      55        0    0.0000
    868 C         174.6199   74.1738  150.1243 C.3      55        0    0.0000
    869 C         175.0504   73.2854  151.3058 C.3      55        0    0.0000
    870 C         175.6685   71.9434  150.9058 C.3      55        0    0.0000
    871 H         177.0180   74.1782  151.6008 H        55        0    0.0000
    872 H         176.1614   73.8277  153.1159 H        55        0    0.0000
    873 H         174.5685   75.6011  152.7294 H        55        0    0.0000
    874 H         176.1029   76.3375  152.2454 H        55        0    0.0000
    875 H         175.7427   75.9812  149.9511 H        55        0    0.0000
    876 H         173.6022   76.7334  149.2355 H        55        0    0.0000
    877 H         172.8197   76.1920  150.7146 H        55        0    0.0000
    878 H         175.2088   73.9517  149.2257 H        55        0    0.0000
    879 H         173.5705   73.9940  149.8678 H        55        0    0.0000
    880 H         174.1700   73.1087  151.9409 H        55        0    0.0000
    881 H         175.0171   71.1187  151.2184 H        55        0    0.0000
    882 H         175.7417   71.8897  149.8130 H        55        0    0.0000
    883 C         177.0849   71.7350  151.5116 C.3      56        0    0.0000
    884 C         177.4140   70.2716  151.8395 C.3      56        0    0.0000
    885 H         177.1172   72.3089  152.4466 H        56        0    0.0000
    886 H         177.8389   72.1744  150.8480 H        56        0    0.0000
    887 H         176.8146   69.6317  151.1793 H        56        0    0.0000
    888 H         178.4651   70.0422  151.6284 H        56        0    0.0000
    889 C         177.7211   66.3527  152.2714 C.3      57        0    0.0000
    890 C         176.6940   67.3516  152.8100 C.3      57        0    0.0000
    891 C         177.4822   68.4079  153.6050 C.3      57        0    0.0000
    892 C         177.0674   69.8548  153.3108 C.3      57        0    0.0000
    893 C         178.9480   68.1376  153.2504 C.3      57        0    0.0000
    894 C         179.0203   66.6216  153.0385 C.3      57        0    0.0000
    895 C         179.1107   65.8464  154.3667 C.3      57        0    0.0000
    896 H         177.3665   65.3207  152.3515 H        57        0    0.0000
    897 H         177.8847   66.5547  151.2051 H        57        0    0.0000
    898 H         176.1204   67.7826  151.9820 H        57        0    0.0000
    899 H         175.9796   66.8457  153.4700 H        57        0    0.0000
    900 H         177.3473   68.2043  154.6769 H        57        0    0.0000
    901 H         175.9855   69.9591  153.4563 H        57        0    0.0000
    902 H         177.5503   70.5423  154.0147 H        57        0    0.0000
    903 H         179.6304   68.4910  154.0302 H        57        0    0.0000
    904 H         179.2162   68.6505  152.3177 H        57        0    0.0000
    905 H         179.8893   66.3784  152.4139 H        57        0    0.0000
    906 H         178.4802   64.9506  154.3457 H        57        0    0.0000
    907 H         178.7397   66.4780  155.1826 H        57        0    0.0000
    908 C         180.5751   65.4376  154.6984 C.3      58        0    0.0000
    909 C         181.2703   66.3679  155.7028 C.3      58        0    0.0000
    910 H         180.5317   64.4331  155.1385 H        58        0    0.0000
    911 H         181.1530   65.3487  153.7710 H        58        0    0.0000
    912 H         180.5683   67.0983  156.1219 H        58        0    0.0000
    913 H         181.6263   65.7573  156.5424 H        58        0    0.0000
    914 C         180.5838   69.7507  154.8818 C.3      59        0    0.0000
    915 C         180.6587   68.4648  154.0541 C.3      59        0    0.0000
    916 C         182.1396   68.0765  153.9831 C.3      59        0    0.0000
    917 C         182.5222   67.1117  155.1213 C.3      59        0    0.0000
    918 C         182.8335   69.4430  154.0485 C.3      59        0    0.0000
    919 C         182.0310   70.2271  155.0899 C.3      59        0    0.0000
    920 C         182.2263   71.7417  154.9571 C.3      59        0    0.0000
    921 H         179.9702   70.4925  154.3582 H        59        0    0.0000
    922 H         180.1059   69.5589  155.8493 H        59        0    0.0000
    923 H         180.2904   68.6742  153.0417 H        59        0    0.0000
    924 H         180.0244   67.6745  154.4683 H        59        0    0.0000
    925 H         182.3517   67.5935  153.0206 H        59        0    0.0000
    926 H         182.9920   67.6803  155.9330 H        59        0    0.0000
    927 H         183.2614   66.3761  154.7869 H        59        0    0.0000
    928 H         182.7651   69.9325  153.0682 H        59        0    0.0000
    929 H         183.8939   69.3835  154.3114 H        59        0    0.0000
    930 H         182.3589   69.9111  156.0902 H        59        0    0.0000
    931 H         183.2866   71.9999  155.0601 H        59        0    0.0000
    932 H         181.6947   72.2500  155.7702 H        59        0    0.0000
    933 C         181.9365   75.8903  152.4861 C.3      60        0    0.0000
    934 C         182.6151   74.6062  152.9381 C.3      60        0    0.0000
    935 C         181.4703   73.7947  153.5578 C.3      60        0    0.0000
    936 C         181.6901   72.2772  153.5984 C.3      60        0    0.0000
    937 C         180.1900   74.2590  152.8332 C.3      60        0    0.0000
    938 C         180.6230   75.3895  151.8819 C.3      60        0    0.0000
    939 C         179.5982   76.5142  151.7159 C.3      60        0    0.0000
    940 H         181.7521   76.5454  153.3463 H        60        0    0.0000
    941 H         182.5429   76.4404  151.7601 H        60        0    0.0000
    942 H         183.0576   74.1017  152.0724 H        60        0    0.0000
    943 H         183.4161   74.7992  153.6585 H        60        0    0.0000
    944 H         181.3746   74.1217  154.6040 H        60        0    0.0000
    945 H         180.7422   71.7743  153.3725 H        60        0    0.0000
    946 H         182.3919   71.9955  152.8044 H        60        0    0.0000
    947 H         179.4700   74.6208  153.5777 H        60        0    0.0000
    948 H         179.6950   73.4551  152.2783 H        60        0    0.0000
    949 H         180.8429   74.9460  150.8998 H        60        0    0.0000
    950 H         179.4686   76.7542  150.6540 H        60        0    0.0000
    951 H         178.6229   76.1726  152.0825 H        60        0    0.0000
    952 C         182.2919   79.8072  150.2626 C.3      61        0    0.0000
    953 C         181.3603   78.6148  150.4948 C.3      61        0    0.0000
    954 C         181.3349   78.3769  152.0104 C.3      61        0    0.0000
    955 C         179.9975   77.8035  152.4872 C.3      61        0    0.0000
    956 C         181.6801   79.7547  152.5851 C.3      61        0    0.0000
    957 C         182.7907   80.2401  151.6475 C.3      61        0    0.0000
    958 C         183.0756   81.7428  151.7201 C.3      61        0    0.0000
    959 H         183.1295   79.5394  149.6095 H        61        0    0.0000
    960 H         181.7374   80.6124  149.7661 H        61        0    0.0000
    961 H         181.7108   77.7236  149.9632 H        61        0    0.0000
    962 H         180.3615   78.8514  150.1090 H        61        0    0.0000
    963 H         182.1468   77.6788  152.2612 H        61        0    0.0000
    964 H         179.2104   78.5535  152.3439 H        61        0    0.0000
    965 H         180.0374   77.5884  153.5614 H        61        0    0.0000
    966 H         182.0202   79.6912  153.6236 H        61        0    0.0000
    967 H         180.8124   80.4252  152.5463 H        61        0    0.0000
    968 H         183.7093   79.6784  151.8718 H        61        0    0.0000
    969 H         182.8643   82.1217  152.7269 H        61        0    0.0000
    970 H         182.4023   82.2723  151.0353 H        61        0    0.0000
    971 C         184.5410   82.0857  151.3355 C.3      62        0    0.0000
    972 C         184.7133   82.5424  149.8797 C.3      62        0    0.0000
    973 H         184.8560   82.9085  151.9900 H        62        0    0.0000
    974 H         185.1923   81.2346  151.5663 H        62        0    0.0000
    975 H         183.7631   82.5035  149.3343 H        62        0    0.0000
    976 H         185.0277   83.5939  149.8877 H        62        0    0.0000
    977 C         189.3943   80.9713  149.2277 C.3      63        0    0.0000
    978 C         188.3418   82.0706  149.0928 C.3      63        0    0.0000
    979 C         187.1108   81.6027  149.8883 C.3      63        0    0.0000
    980 C         185.8096   81.7482  149.0884 C.3      63        0    0.0000
    981 C         187.4359   80.1578  150.2976 C.3      63        0    0.0000
    982 C         188.9641   80.1183  150.4239 C.3      63        0    0.0000
    983 C         189.5022   80.6839  151.7509 C.3      63        0    0.0000
    984 H         189.3808   80.3539  148.3203 H        63        0    0.0000
    985 H         190.4052   81.3792  149.3260 H        63        0    0.0000
    986 H         188.1203   82.2599  148.0367 H        63        0    0.0000
    987 H         188.7180   83.0094  149.5162 H        63        0    0.0000
    988 H         187.0431   82.2175  150.7969 H        63        0    0.0000
    989 H         185.4215   80.7617  148.8096 H        63        0    0.0000
    990 H         186.0172   82.2825  148.1535 H        63        0    0.0000
    991 H         186.9210   79.8664  151.2182 H        63        0    0.0000
    992 H         187.1225   79.4594  149.5107 H        63        0    0.0000
    993 H         189.3278   79.0909  150.2949 H        63        0    0.0000
    994 H         189.0653   80.1645  152.6105 H        63        0    0.0000
    995 H         189.2092   81.7371  151.8394 H        63        0    0.0000
    996 C         192.6579   82.3233  154.7832 C.3      64        0    0.0000
    997 C         191.4587   81.6342  154.1269 C.3      64        0    0.0000
    998 C         191.6537   81.7808  152.6121 C.3      64        0    0.0000
    999 C         191.0532   80.6083  151.8317 C.3      64        0    0.0000
   1000 C         193.1718   81.9321  152.4694 C.3      64        0    0.0000
   1001 C         193.5275   82.8577  153.6377 C.3      64        0    0.0000
   1002 C         195.0150   82.8849  154.0000 C.3      64        0    0.0000
   1003 H         192.3395   83.1349  155.4462 H        64        0    0.0000
   1004 H         193.2047   81.5977  155.3973 H        64        0    0.0000
   1005 H         190.5133   82.0856  154.4467 H        64        0    0.0000
   1006 H         191.4336   80.5800  154.4280 H        64        0    0.0000
   1007 H         191.1763   82.7193  152.2945 H        64        0    0.0000
   1008 H         191.3314   79.6673  152.3213 H        64        0    0.0000
   1009 H         191.4701   80.5726  150.8184 H        64        0    0.0000
   1010 H         193.4507   82.3663  151.5041 H        64        0    0.0000
   1011 H         193.6745   80.9619  152.5697 H        64        0    0.0000
   1012 H         193.1874   83.8751  153.3952 H        64        0    0.0000
   1013 H         195.4171   81.8656  154.0331 H        64        0    0.0000
   1014 H         195.1348   83.3048  155.0060 H        64        0    0.0000
   1015 C         195.8498   83.7381  153.0060 C.3      65        0    0.0000
   1016 C         196.9298   84.5988  153.6769 C.3      65        0    0.0000
   1017 H         195.1467   84.4097  152.4969 H        65        0    0.0000
   1018 H         196.2794   83.0898  152.2332 H        65        0    0.0000
   1019 H         196.5704   84.8788  154.6754 H        65        0    0.0000
   1020 H         197.8566   84.0322  153.8248 H        65        0    0.0000
   1021 C         200.8686   86.3163  152.2253 C.3      66        0    0.0000
   1022 C         199.7849   85.4952  152.9284 C.3      66        0    0.0000
   1023 C         198.6393   86.4689  153.2580 C.3      66        0    0.0000
   1024 C         197.2427   85.9346  152.9175 C.3      66        0    0.0000
   1025 C         198.9833   87.7416  152.4776 C.3      66        0    0.0000
   1026 C         200.5151   87.7873  152.4700 C.3      66        0    0.0000
   1027 C         201.0930   88.3377  153.7876 C.3      66        0    0.0000
   1028 H         201.8720   86.0410  152.5637 H        66        0    0.0000
   1029 H         200.8247   86.1102  151.1481 H        66        0    0.0000
   1030 H         199.4673   84.6660  152.2865 H        66        0    0.0000
   1031 H         200.1782   85.0567  153.8530 H        66        0    0.0000
   1032 H         198.6844   86.7039  154.3311 H        66        0    0.0000
   1033 H         196.4898   86.6801  153.2001 H        66        0    0.0000
   1034 H         197.1453   85.7786  151.8370 H        66        0    0.0000
   1035 H         198.5336   88.6327  152.9274 H        66        0    0.0000
   1036 H         198.6145   87.6687  151.4463 H        66        0    0.0000
   1037 H         200.8606   88.4068  151.6327 H        66        0    0.0000
   1038 H         201.9715   87.7648  154.1044 H        66        0    0.0000
   1039 H         200.3445   88.2387  154.5827 H        66        0    0.0000
   1040 C         203.8077   92.0919  151.9441 C.3      67        0    0.0000
   1041 C         203.6310   91.0687  153.0650 C.3      67        0    0.0000
   1042 C         202.5467   90.0832  152.5957 C.3      67        0    0.0000
   1043 C         201.4752   89.8415  153.6670 C.3      67        0    0.0000
   1044 C         202.0037   90.6905  151.2930 C.3      67        0    0.0000
   1045 C         203.1870   91.4619  150.6946 C.3      67        0    0.0000
   1046 C         204.1972   90.5798  149.9385 C.3      67        0    0.0000
   1047 H         203.2520   93.0020  152.2038 H        67        0    0.0000
   1048 H         204.8552   92.3797  151.8109 H        67        0    0.0000
   1049 H         203.3732   91.5712  154.0037 H        67        0    0.0000
   1050 H         204.5696   90.5284  153.2362 H        67        0    0.0000
   1051 H         203.0382   89.1289  152.3593 H        67        0    0.0000
   1052 H         200.5788   90.4338  153.4496 H        67        0    0.0000
   1053 H         201.8517   90.1822  154.6390 H        67        0    0.0000
   1054 H         201.6041   89.9263  150.6193 H        67        0    0.0000
   1055 H         201.1899   91.3944  151.5111 H        67        0    0.0000
   1056 H         202.8236   92.2513  150.0243 H        67        0    0.0000
   1057 H         203.6885   89.8715  149.2757 H        67        0    0.0000
   1058 H         204.7646   89.9805  150.6609 H        67        0    0.0000
   1059 C         205.2097   91.4256  149.1155 C.3      68        0    0.0000
   1060 C         206.6103   90.8037  149.0206 C.3      68        0    0.0000
   1061 H         204.8032   91.5057  148.0992 H        68        0    0.0000
   1062 H         205.2522   92.4448  149.5172 H        68        0    0.0000
   1063 H         206.9629   90.4636  150.0014 H        68        0    0.0000
   1064 H         206.5444   89.9119  148.3843 H        68        0    0.0000
   1065 C         207.0711   94.7888  149.4390 C.3      69        0    0.0000
   1066 C         206.1715   93.7446  148.7723 C.3      69        0    0.0000
   1067 C         207.0437   93.0033  147.7532 C.3      69        0    0.0000
   1068 C         207.6827   91.7452  148.3708 C.3      69        0    0.0000
   1069 C         208.0470   94.0876  147.3399 C.3      69        0    0.0000
   1070 C         208.3893   94.8066  148.6473 C.3      69        0    0.0000
   1071 C         208.9680   96.2059  148.4089 C.3      69        0    0.0000
   1072 H         206.5697   95.7633  149.4389 H        69        0    0.0000
   1073 H         207.2616   94.5221  150.4849 H        69        0    0.0000
   1074 H         205.3597   94.2621  148.2456 H        69        0    0.0000
   1075 H         205.7044   93.0794  149.5056 H        69        0    0.0000
   1076 H         206.4352   92.7060  146.8894 H        69        0    0.0000
   1077 H         208.3925   92.0473  149.1504 H        69        0    0.0000
   1078 H         208.2573   91.1847  147.6257 H        69        0    0.0000
   1079 H         207.5639   94.7815  146.6395 H        69        0    0.0000
   1080 H         208.9398   93.6928  146.8461 H        69        0    0.0000
   1081 H         209.1283   94.2024  149.1920 H        69        0    0.0000
   1082 H         209.2358   96.6753  149.3627 H        69        0    0.0000
   1083 H         208.2046   96.8414  147.9449 H        69        0    0.0000
   1084 C         212.4570   99.1747  148.0850 C.3      70        0    0.0000
   1085 C         211.0708   98.5479  148.0295 C.3      70        0    0.0000
   1086 C         211.3768   97.0488  147.9477 C.3      70        0    0.0000
   1087 C         210.2159   96.1654  147.4807 C.3      70        0    0.0000
   1088 C         212.6690   96.9432  147.1145 C.3      70        0    0.0000
   1089 C         213.2363   98.3741  147.0365 C.3      70        0    0.0000
   1090 C         214.7615   98.4855  147.1242 C.3      70        0    0.0000
   1091 H         212.4320  100.2436  147.8513 H        70        0    0.0000
   1092 H         212.8768   99.0560  149.0900 H        70        0    0.0000
   1093 H         210.4734   98.7982  148.9116 H        70        0    0.0000
   1094 H         210.5369   98.9085  147.1434 H        70        0    0.0000
   1095 H         211.6301   96.7189  148.9666 H        70        0    0.0000
   1096 H         209.9149   96.4733  146.4723 H        70        0    0.0000
   1097 H         210.5634   95.1284  147.4029 H        70        0    0.0000
   1098 H         212.4930   96.5636  146.1022 H        70        0    0.0000
   1099 H         213.3569   96.2381  147.5934 H        70        0    0.0000
   1100 H         212.9500   98.7743  146.0521 H        70        0    0.0000
   1101 H         215.1938   97.4780  147.1385 H        70        0    0.0000
   1102 H         215.1376   98.9768  146.2190 H        70        0    0.0000
   1103 C         215.2758   99.2687  148.3693 C.3      71        0    0.0000
   1104 C         216.7598   99.6552  148.2939 C.3      71        0    0.0000
   1105 H         215.1391   98.6101  149.2365 H        71        0    0.0000
   1106 H         214.6429  100.1474  148.5403 H        71        0    0.0000
   1107 H         217.3123   99.0241  149.0017 H        71        0    0.0000
   1108 H         217.1755   99.4500  147.3004 H        71        0    0.0000
   1109 C         217.0515  101.1436  148.6916 C.3      72        0    0.0000
   1110 C         218.5277  101.5459  148.5631 C.3      72        0    0.0000
   1111 H         216.7590  101.2536  149.7437 H        72        0    0.0000
   1112 H         216.4037  101.8139  148.1146 H        72        0    0.0000
   1113 H         219.1205  100.8716  149.1945 H        72        0    0.0000
   1114 H         218.8895  101.4130  147.5368 H        72        0    0.0000
   1115 C         218.5631  103.5547  152.7687 C.3      73        0    0.0000
   1116 C         218.7662  102.6312  151.5648 C.3      73        0    0.0000
   1117 C         218.1301  103.3431  150.3637 C.3      73        0    0.0000
   1118 C         218.8347  103.0055  149.0468 C.3      73        0    0.0000
   1119 C         218.1940  104.8216  150.7613 C.3      73        0    0.0000
   1120 C         217.8126  104.7863  152.2449 C.3      73        0    0.0000
   1121 C         218.1635  106.0567  153.0243 C.3      73        0    0.0000
   1122 H         217.9960  103.0578  153.5632 H        73        0    0.0000
   1123 H         219.5388  103.8277  153.1880 H        73        0    0.0000
   1124 H         218.3053  101.6513  151.7298 H        73        0    0.0000
   1125 H         219.8388  102.4637  151.4100 H        73        0    0.0000
   1126 H         217.0742  103.0408  150.3060 H        73        0    0.0000
   1127 H         219.9184  103.1082  149.1795 H        73        0    0.0000
   1128 H         218.5430  103.7176  148.2660 H        73        0    0.0000
   1129 H         217.5006  105.4331  150.1752 H        73        0    0.0000
   1130 H         219.2067  105.2215  150.6253 H        73        0    0.0000
   1131 H         216.7335  104.5896  152.3251 H        73        0    0.0000
   1132 H         218.7100  105.8023  153.9400 H        73        0    0.0000
   1133 H         217.2389  106.5567  153.3367 H        73        0    0.0000
   1134 C         222.4284  105.4919  151.6555 C.3      74        0    0.0000
   1135 C         221.1282  105.5953  152.4405 C.3      74        0    0.0000
   1136 C         220.2379  106.4346  151.5181 C.3      74        0    0.0000
   1137 C         219.0039  107.0543  152.1809 C.3      74        0    0.0000
   1138 C         221.1919  107.4294  150.8285 C.3      74        0    0.0000
   1139 C         222.6156  106.9137  151.1157 C.3      74        0    0.0000
   1140 C         223.6136  107.0527  149.9621 C.3      74        0    0.0000
   1141 H         223.2644  105.1790  152.2886 H        74        0    0.0000
   1142 H         222.3172  104.7569  150.8507 H        74        0    0.0000
   1143 H         220.6954  104.6114  152.6460 H        74        0    0.0000
   1144 H         221.3132  106.0926  153.3990 H        74        0    0.0000
   1145 H         219.8650  105.7589  150.7335 H        74        0    0.0000
   1146 H         219.3218  107.8812  152.8270 H        74        0    0.0000
   1147 H         218.3612  107.4890  151.4061 H        74        0    0.0000
   1148 H         221.0891  108.4514  151.2091 H        74        0    0.0000
   1149 H         220.9631  107.4741  149.7582 H        74        0    0.0000
   1150 H         223.0101  107.5202  151.9449 H        74        0    0.0000
   1151 H         224.5820  106.6449  150.2753 H        74        0    0.0000
   1152 H         223.2728  106.4419  149.1177 H        74        0    0.0000
   1153 C         223.8225  108.5161  149.4689 C.3      75        0    0.0000
   1154 C         225.2964  108.9252  149.3361 C.3      75        0    0.0000
   1155 H         223.3593  108.5851  148.4763 H        75        0    0.0000
   1156 H         223.2738  109.2071  150.1196 H        75        0    0.0000
   1157 H         225.9537  108.2267  149.8672 H        75        0    0.0000
   1158 H         225.5710  108.8693  148.2750 H        75        0    0.0000
   1159 C         224.6019  113.2117  147.6751 C.3      76        0    0.0000
   1160 C         224.6587  111.6914  147.8170 C.3      76        0    0.0000
   1161 C         224.5301  111.3836  149.3189 C.3      76        0    0.0000
   1162 C         225.5953  110.3916  149.8043 C.3      76        0    0.0000
   1163 C         224.5935  112.7563  150.0063 C.3      76        0    0.0000
   1164 C         224.0054  113.7367  148.9836 C.3      76        0    0.0000
   1165 C         222.4665  113.7565  148.9416 C.3      76        0    0.0000
   1166 H         225.6239  113.5961  147.5643 H        76        0    0.0000
   1167 H         224.0420  113.5216  146.7872 H        76        0    0.0000
   1168 H         225.5841  111.3013  147.3794 H        76        0    0.0000
   1169 H         223.8259  111.2289  147.2743 H        76        0    0.0000
   1170 H         223.5340  110.9515  149.4903 H        76        0    0.0000
   1171 H         225.6736  110.4213  150.8972 H        76        0    0.0000
   1172 H         226.5739  110.6889  149.4086 H        76        0    0.0000
   1173 H         224.0607  112.7616  150.9622 H        76        0    0.0000
   1174 H         225.6363  113.0325  150.2098 H        76        0    0.0000
   1175 H         224.3748  114.7519  149.1771 H        76        0    0.0000
   1176 H         222.0527  112.7491  149.0581 H        76        0    0.0000
   1177 H         222.1369  114.1188  147.9602 H        76        0    0.0000
   1178 C         222.7830  114.3304  153.6039 C.3      77        0    0.0000
   1179 C         222.1280  115.2144  152.5397 C.3      77        0    0.0000
   1180 C         222.8248  114.8880  151.2066 C.3      77        0    0.0000
   1181 C         221.8647  114.6938  150.0266 C.3      77        0    0.0000
   1182 C         223.6468  113.6296  151.5033 C.3      77        0    0.0000
   1183 C         224.0648  113.7788  152.9701 C.3      77        0    0.0000
   1184 C         225.2767  114.7137  153.1434 C.3      77        0    0.0000
   1185 H         222.9511  114.8743  154.5382 H        77        0    0.0000
   1186 H         222.1080  113.4962  153.8344 H        77        0    0.0000
   1187 H         221.0484  115.0300  152.5120 H        77        0    0.0000
   1188 H         222.2695  116.2737  152.7840 H        77        0    0.0000
   1189 H         223.5231  115.7046  150.9735 H        77        0    0.0000
   1190 H         220.9291  114.2511  150.3887 H        77        0    0.0000
   1191 H         221.6066  115.6608  149.5798 H        77        0    0.0000
   1192 H         224.5009  113.5286  150.8259 H        77        0    0.0000
   1193 H         223.0254  112.7319  151.3895 H        77        0    0.0000
   1194 H         224.3022  112.7919  153.3872 H        77        0    0.0000
   1195 H         226.0095  114.2873  153.8374 H        77        0    0.0000
   1196 H         224.9439  115.6646  153.5764 H        77        0    0.0000
   1197 C         229.0920  117.0874  152.3558 C.3      78        0    0.0000
   1198 C         228.0024  116.1766  152.9003 C.3      78        0    0.0000
   1199 C         226.9212  116.2213  151.8131 C.3      78        0    0.0000
   1200 C         225.9710  115.0174  151.7841 C.3      78        0    0.0000
   1201 C         227.6679  116.5070  150.4939 C.3      78        0    0.0000
   1202 C         229.1461  116.7092  150.8742 C.3      78        0    0.0000
   1203 C         229.8848  117.7569  150.0377 C.3      78        0    0.0000
   1204 H         228.8081  118.1389  152.4858 H        78        0    0.0000
   1205 H         230.0501  116.9263  152.8593 H        78        0    0.0000
   1206 H         228.4051  115.1677  153.0412 H        78        0    0.0000
   1207 H         227.6247  116.5241  153.8670 H        78        0    0.0000
   1208 H         226.2966  117.1037  152.0174 H        78        0    0.0000
   1209 H         225.1978  115.1927  151.0267 H        78        0    0.0000
   1210 H         226.5282  114.1289  151.4643 H        78        0    0.0000
   1211 H         227.2488  117.4114  150.0353 H        78        0    0.0000
   1212 H         227.5645  115.7020  149.7587 H        78        0    0.0000
   1213 H         229.6590  115.7405  150.7846 H        78        0    0.0000
   1214 H         230.8713  117.3793  149.7437 H        78        0    0.0000
   1215 H         229.3283  117.9383  149.1105 H        78        0    0.0000
   1216 C         230.6483  121.8625  148.2393 C.3      79        0    0.0000
   1217 C         230.7302  120.3982  148.6471 C.3      79        0    0.0000
   1218 C         229.8630  120.3459  149.9092 C.3      79        0    0.0000
   1219 C         230.0563  119.1070  150.7889 C.3      79        0    0.0000
   1220 C         230.0853  121.7002  150.6106 C.3      79        0    0.0000
   1221 C         230.7914  122.5980  149.5758 C.3      79        0    0.0000
   1222 C         230.3549  124.0662  149.5683 C.3      79        0    0.0000
   1223 H         231.4388  122.1351  147.5332 H        79        0    0.0000
   1224 H         229.6824  122.0601  147.7615 H        79        0    0.0000
   1225 H         230.3551  119.7337  147.8626 H        79        0    0.0000
   1226 H         231.7722  120.1288  148.8516 H        79        0    0.0000
   1227 H         228.8145  120.3315  149.5753 H        79        0    0.0000
   1228 H         231.0575  119.1373  151.2348 H        79        0    0.0000
   1229 H         229.3407  119.1416  151.6189 H        79        0    0.0000
   1230 H         230.7073  121.6176  151.5084 H        79        0    0.0000
   1231 H         229.1218  122.1051  150.9386 H        79        0    0.0000
   1232 H         231.8620  122.5917  149.8303 H        79        0    0.0000
   1233 H         230.4786  124.4714  148.5570 H        79        0    0.0000
   1234 H         229.2851  124.1233  149.8018 H        79        0    0.0000
   1235 C         231.1346  124.9712  150.5689 C.3      80        0    0.0000
   1236 C         231.5841  126.3141  149.9757 C.3      80        0    0.0000
   1237 H         232.0316  124.4136  150.8676 H        80        0    0.0000
   1238 H         230.5386  125.1160  151.4776 H        80        0    0.0000
   1239 H         231.6883  126.1890  148.8903 H        80        0    0.0000
   1240 H         230.8270  127.0918  150.1302 H        80        0    0.0000
   1241 C         232.9937  130.5847  150.4237 C.3      81        0    0.0000
   1242 C         232.2616  129.2482  150.2763 C.3      81        0    0.0000
   1243 C         233.3382  128.1990  149.9694 C.3      81        0    0.0000
   1244 C         232.9714  126.8137  150.5089 C.3      81        0    0.0000
   1245 C         234.6033  128.8086  150.5826 C.3      81        0    0.0000
   1246 C         234.4821  130.2873  150.1997 C.3      81        0    0.0000
   1247 C         235.3900  131.2290  150.9958 C.3      81        0    0.0000
   1248 H         232.6278  131.3232  149.7023 H        81        0    0.0000
   1249 H         232.8121  130.9917  151.4257 H        81        0    0.0000
   1250 H         231.5130  129.2880  149.4778 H        81        0    0.0000
   1251 H         231.7309  129.0180  151.2079 H        81        0    0.0000
   1252 H         233.4665  128.1487  148.8783 H        81        0    0.0000
   1253 H         232.9313  126.8507  151.6041 H        81        0    0.0000
   1254 H         233.7474  126.0854  150.2455 H        81        0    0.0000
   1255 H         235.5135  128.3546  150.1780 H        81        0    0.0000
   1256 H         234.6108  128.6843  151.6727 H        81        0    0.0000
   1257 H         234.6942  130.3900  149.1255 H        81        0    0.0000
   1258 H         236.4210  131.1637  150.6286 H        81        0    0.0000
   1259 H         235.4078  130.9128  152.0457 H        81        0    0.0000
   1260 C         234.9111  132.7053  150.9324 C.3      82        0    0.0000
   1261 C         234.6150  133.3245  152.3058 C.3      82        0    0.0000
   1262 H         235.7209  133.2813  150.4667 H        82        0    0.0000
   1263 H         234.0457  132.7846  150.2642 H        82        0    0.0000
   1264 H         234.4429  132.5510  153.0634 H        82        0    0.0000
   1265 H         235.5032  133.8845  152.6255 H        82        0    0.0000
   1266 C         232.0926  134.9870  148.8984 C.3      83        0    0.0000
   1267 C         233.1700  134.2934  149.7357 C.3      83        0    0.0000
   1268 C         233.3607  135.1472  151.0022 C.3      83        0    0.0000
   1269 C         233.4180  134.3374  152.3034 C.3      83        0    0.0000
   1270 C         232.1873  136.1320  150.9791 C.3      83        0    0.0000
   1271 C         231.9303  136.3911  149.4908 C.3      83        0    0.0000
   1272 C         232.9129  137.4169  148.8947 C.3      83        0    0.0000
   1273 H         232.3398  134.9832  147.8326 H        83        0    0.0000
   1274 H         231.1492  134.4375  149.0117 H        83        0    0.0000
   1275 H         232.8674  133.2641  149.9579 H        83        0    0.0000
   1276 H         234.1119  134.2406  149.1773 H        83        0    0.0000
   1277 H         234.2912  135.7225  150.8934 H        83        0    0.0000
   1278 H         233.5393  135.0214  153.1518 H        83        0    0.0000
   1279 H         232.4763  133.7992  152.4612 H        83        0    0.0000
   1280 H         232.4089  137.0470  151.5380 H        83        0    0.0000
   1281 H         231.2966  135.6756  151.4301 H        83        0    0.0000
   1282 H         230.9016  136.7471  149.3515 H        83        0    0.0000
   1283 H         232.6858  137.6168  147.8417 H        83        0    0.0000
   1284 H         233.9301  137.0091  148.9294 H        83        0    0.0000
   1285 C         232.1391  138.0986  153.2592 C.3      84        0    0.0000
   1286 C         232.1915  137.5255  151.8409 C.3      84        0    0.0000
   1287 C         231.9398  138.7023  150.8811 C.3      84        0    0.0000
   1288 C         232.9009  138.7562  149.6872 C.3      84        0    0.0000
   1289 C         232.0411  139.9472  151.7683 C.3      84        0    0.0000
   1290 C         231.5136  139.4921  153.1333 C.3      84        0    0.0000
   1291 C         229.9743  139.4722  153.1914 C.3      84        0    0.0000
   1292 H         231.6056  137.4357  153.9470 H        84        0    0.0000
   1293 H         233.1644  138.1976  153.6383 H        84        0    0.0000
   1294 H         233.1566  137.0358  151.6700 H        84        0    0.0000
   1295 H         231.4140  136.7642  151.7081 H        84        0    0.0000
   1296 H         230.9072  138.6303  150.5106 H        84        0    0.0000
   1297 H         232.5916  139.5596  149.0080 H        84        0    0.0000
   1298 H         233.9159  138.9975  150.0233 H        84        0    0.0000
   1299 H         231.4797  140.7917  151.3556 H        84        0    0.0000
   1300 H         233.0881  140.2617  151.8671 H        84        0    0.0000
   1301 H         231.9001  140.1558  153.9171 H        84        0    0.0000
   1302 H         229.6097  138.5842  153.7195 H        84        0    0.0000
   1303 H         229.5722  139.4245  152.1724 H        84        0    0.0000
   1304 C         232.5182  142.3704  152.8024 C.3      85        0    0.0000
   1305 C         231.1951  141.7498  152.3566 C.3      85        0    0.0000
   1306 C         230.1826  142.0122  153.4849 C.3      85        0    0.0000
   1307 C         229.4057  140.7484  153.8769 C.3      85        0    0.0000
   1308 C         231.0166  142.6137  154.6266 C.3      85        0    0.0000
   1309 C         232.1693  143.3467  153.9287 C.3      85        0    0.0000
   1310 C         231.7945  144.7368  153.3831 C.3      85        0    0.0000
   1311 H         233.1660  141.5780  153.1989 H        85        0    0.0000
   1312 H         233.0536  142.8396  151.9710 H        85        0    0.0000
   1313 H         231.3266  140.6838  152.1410 H        85        0    0.0000
   1314 H         230.8463  142.2247  151.4320 H        85        0    0.0000
   1315 H         229.4730  142.7732  153.1307 H        85        0    0.0000
   1316 H         228.3446  140.8605  153.6259 H        85        0    0.0000
   1317 H         229.4612  140.6118  154.9636 H        85        0    0.0000
   1318 H         230.4197  143.2666  155.2709 H        85        0    0.0000
   1319 H         231.4286  141.8161  155.2585 H        85        0    0.0000
   1320 H         233.0235  143.4444  154.6109 H        85        0    0.0000
   1321 H         230.7433  144.7735  153.0775 H        85        0    0.0000
   1322 H         232.3891  144.9444  152.4852 H        85        0    0.0000
   1323 C         231.8910  143.1739  156.9656 C.3      86        0    0.0000
   1324 C         231.1143  144.0530  155.9823 C.3      86        0    0.0000
   1325 C         231.8976  145.3722  155.8580 C.3      86        0    0.0000
   1326 C         232.0746  145.8645  154.4163 C.3      86        0    0.0000
   1327 C         233.2366  145.0876  156.5459 C.3      86        0    0.0000
   1328 C         232.8929  144.0989  157.6651 C.3      86        0    0.0000
   1329 C         232.3071  144.7975  158.9068 C.3      86        0    0.0000
   1330 H         231.2243  142.6445  157.6530 H        86        0    0.0000
   1331 H         232.4404  142.4110  156.3993 H        86        0    0.0000
   1332 H         231.0005  143.5337  155.0244 H        86        0    0.0000
   1333 H         230.1063  144.2534  156.3639 H        86        0    0.0000
   1334 H         231.3714  146.1420  156.4406 H        86        0    0.0000
   1335 H         231.3790  146.6908  154.2268 H        86        0    0.0000
   1336 H         233.0859  146.2604  154.2684 H        86        0    0.0000
   1337 H         233.7095  146.0026  156.9172 H        86        0    0.0000
   1338 H         233.9347  144.6156  155.8424 H        86        0    0.0000
   1339 H         233.7927  143.5396  157.9511 H        86        0    0.0000
   1340 H         231.7226  144.0985  159.5153 H        86        0    0.0000
   1341 H         231.6222  145.5922  158.5881 H        86        0    0.0000
   1342 C         233.4187  145.4403  159.7861 C.3      87        0    0.0000
   1343 C         232.8836  146.3433  160.9066 C.3      87        0    0.0000
   1344 H         233.9730  144.6143  160.2499 H        87        0    0.0000
   1345 H         234.1309  145.9762  159.1478 H        87        0    0.0000
   1346 H         231.9874  145.9149  161.3705 H        87        0    0.0000
   1347 H         233.6474  146.3994  161.6927 H        87        0    0.0000
   1348 C         232.5915  147.8158  160.4535 C.3      88        0    0.0000
   1349 C         232.2532  148.7686  161.6089 C.3      88        0    0.0000
   1350 H         233.5029  148.1835  159.9647 H        88        0    0.0000
   1351 H         231.8040  147.8183  159.6908 H        88        0    0.0000
   1352 H         231.4816  149.4908  161.3174 H        88        0    0.0000
   1353 H         231.8316  148.1731  162.4289 H        88        0    0.0000
   1354 C         232.8063  153.2650  162.1196 C.3      89        0    0.0000
   1355 C         232.5777  151.8670  161.5622 C.3      89        0    0.0000
   1356 C         233.2030  150.9661  162.6324 C.3      89        0    0.0000
   1357 C         233.4945  149.5281  162.1928 C.3      89        0    0.0000
   1358 C         234.4130  151.7547  163.1702 C.3      89        0    0.0000
   1359 C         234.2444  153.1933  162.6432 C.3      89        0    0.0000
   1360 C         234.6454  154.3048  163.6179 C.3      89        0    0.0000
   1361 H         232.6861  154.0358  161.3519 H        89        0    0.0000
   1362 H         232.0858  153.4667  162.9199 H        89        0    0.0000
   1363 H         231.5143  151.6541  161.4156 H        89        0    0.0000
   1364 H         233.0811  151.7676  160.5943 H        89        0    0.0000
   1365 H         232.4774  150.8997  163.4571 H        89        0    0.0000
   1366 H         234.2885  149.5388  161.4367 H        89        0    0.0000
   1367 H         233.8823  148.9633  163.0488 H        89        0    0.0000
   1368 H         235.3714  151.3496  162.8280 H        89        0    0.0000
   1369 H         234.4280  151.7011  164.2641 H        89        0    0.0000
   1370 H         234.9070  153.2895  161.7699 H        89        0    0.0000
   1371 H         235.2658  155.0381  163.0890 H        89        0    0.0000
   1372 H         233.7440  154.8345  163.9480 H        89        0    0.0000
   1373 C         235.4211  153.8060  164.8740 C.3      90        0    0.0000
   1374 C         235.2763  154.7190  166.0999 C.3      90        0    0.0000
   1375 H         235.0080  152.8223  165.1314 H        90        0    0.0000
   1376 H         236.4750  153.6461  164.6180 H        90        0    0.0000
   1377 H         235.8134  155.6643  165.9589 H        90        0    0.0000
   1378 H         234.2147  154.9749  166.2103 H        90        0    0.0000
   1379 C         235.1320  155.6315  170.8395 C.3      91        0    0.0000
   1380 C         234.5869  155.1341  169.5094 C.3      91        0    0.0000
   1381 C         235.8374  155.0253  168.6277 C.3      91        0    0.0000
   1382 C         235.7238  154.0528  167.4469 C.3      91        0    0.0000
   1383 C         237.0083  154.7575  169.5956 C.3      91        0    0.0000
   1384 C         236.4116  154.8109  171.0139 C.3      91        0    0.0000
   1385 C         237.3387  155.4063  172.0764 C.3      91        0    0.0000
   1386 H         235.3543  156.7040  170.7815 H        91        0    0.0000
   1387 H         234.4233  155.4722  171.6580 H        91        0    0.0000
   1388 H         234.0976  154.1648  169.6539 H        91        0    0.0000
   1389 H         233.8479  155.8225  169.0877 H        91        0    0.0000
   1390 H         236.0114  156.0209  168.1930 H        91        0    0.0000
   1391 H         236.6943  153.5663  167.2922 H        91        0    0.0000
   1392 H         235.0121  153.2592  167.7036 H        91        0    0.0000
   1393 H         237.7710  155.5337  169.4564 H        91        0    0.0000
   1394 H         237.4999  153.7950  169.4191 H        91        0    0.0000
   1395 H         236.1282  153.7891  171.3056 H        91        0    0.0000
   1396 H         236.9002  156.3218  172.4909 H        91        0    0.0000
   1397 H         237.4365  154.6995  172.9090 H        91        0    0.0000
   1398 C         238.7558  155.7231  171.5216 C.3      92        0    0.0000
   1399 C         239.8753  155.6052  172.5657 C.3      92        0    0.0000
   1400 H         238.7315  156.7605  171.1641 H        92        0    0.0000
   1401 H         238.9588  155.0947  170.6464 H        92        0    0.0000
   1402 H         239.9826  156.5786  173.0612 H        92        0    0.0000
   1403 H         239.6165  154.8822  173.3482 H        92        0    0.0000
   1404 C         241.2768  155.2487  171.9597 C.3      93        0    0.0000
   1405 C         242.4130  155.2167  172.9919 C.3      93        0    0.0000
   1406 H         241.5097  156.0265  171.2211 H        93        0    0.0000
   1407 H         241.2115  154.3031  171.4089 H        93        0    0.0000
   1408 H         242.2892  154.3160  173.6067 H        93        0    0.0000
   1409 H         243.3918  155.1319  172.5053 H        93        0    0.0000
   1410 C         243.4186  156.0031  177.4785 C.3      94        0    0.0000
   1411 C         243.1512  155.3105  176.1431 C.3      94        0    0.0000
   1412 C         243.5121  156.3222  175.0416 C.3      94        0    0.0000
   1413 C         242.4156  156.4386  173.9746 C.3      94        0    0.0000
   1414 C         243.7970  157.6323  175.7920 C.3      94        0    0.0000
   1415 C         244.3274  157.1939  177.1629 C.3      94        0    0.0000
   1416 C         245.8140  156.7935  177.1654 C.3      94        0    0.0000
   1417 H         242.4675  156.3719  177.8836 H        94        0    0.0000
   1418 H         243.8417  155.3181  178.2200 H        94        0    0.0000
   1419 H         242.1100  154.9744  176.0889 H        94        0    0.0000
   1420 H         243.7827  154.4196  176.0452 H        94        0    0.0000
   1421 H         244.4420  155.9827  174.5637 H        94        0    0.0000
   1422 H         242.5340  157.3687  173.4067 H        94        0    0.0000
   1423 H         241.4365  156.4901  174.4658 H        94        0    0.0000
   1424 H         244.4953  158.2743  175.2464 H        94        0    0.0000
   1425 H         242.8684  158.2010  175.9316 H        94        0    0.0000
   1426 H         244.1658  157.9884  177.9027 H        94        0    0.0000
   1427 H         246.1250  156.4141  176.1862 H        94        0    0.0000
   1428 H         245.9664  155.9761  177.8807 H        94        0    0.0000
   1429 C         243.7507  159.1483  176.8831 C.3      95        0    0.0000
   1430 C         245.0545  159.1411  176.0805 C.3      95        0    0.0000
   1431 C         246.1910  159.3290  177.0915 C.3      95        0    0.0000
   1432 C         246.7361  157.9743  177.5817 C.3      95        0    0.0000
   1433 C         245.5163  160.1736  178.1799 C.3      95        0    0.0000
   1434 C         244.1163  159.5696  178.3162 C.3      95        0    0.0000
   1435 C         243.1233  160.5401  178.9656 C.3      95        0    0.0000
   1436 H         243.0326  159.8320  176.4162 H        95        0    0.0000
   1437 H         243.2947  158.1517  176.8866 H        95        0    0.0000
   1438 H         245.0456  159.9892  175.3842 H        95        0    0.0000
   1439 H         245.1585  158.2332  175.4778 H        95        0    0.0000
   1440 H         247.0095  159.8961  176.6298 H        95        0    0.0000
   1441 H         246.8042  157.9880  178.6762 H        95        0    0.0000
   1442 H         247.7499  157.7953  177.2080 H        95        0    0.0000
   1443 H         245.4496  161.2159  177.8418 H        95        0    0.0000
   1444 H         246.0552  160.1722  179.1321 H        95        0    0.0000
   1445 H         244.1880  158.6644  178.9354 H        95        0    0.0000
   1446 H         242.3472  159.9863  179.5065 H        95        0    0.0000
   1447 H         242.6155  161.1183  178.1845 H        95        0    0.0000
   1448 C         247.1992  159.8143  180.2057 C.3      96        0    0.0000
   1449 C         245.7966  160.0454  180.7470 C.3      96        0    0.0000
   1450 C         245.3487  161.3331  180.0441 C.3      96        0    0.0000
   1451 C         243.8309  161.5275  179.9376 C.3      96        0    0.0000
   1452 C         246.1157  161.3664  178.7061 C.3      96        0    0.0000
   1453 C         247.0513  160.1436  178.7188 C.3      96        0    0.0000
   1454 C         248.4048  160.3661  178.0396 C.3      96        0    0.0000
   1455 H         247.9106  160.4925  180.6925 H        96        0    0.0000
   1456 H         247.5377  158.7868  180.3703 H        96        0    0.0000
   1457 H         245.1600  159.1917  180.4904 H        96        0    0.0000
   1458 H         245.7914  160.1512  181.8363 H        96        0    0.0000
   1459 H         245.7272  162.1745  180.6435 H        96        0    0.0000
   1460 H         243.3873  161.4169  180.9343 H        96        0    0.0000
   1461 H         243.6230  162.5541  179.6136 H        96        0    0.0000
   1462 H         246.6860  162.3017  178.6449 H        96        0    0.0000
   1463 H         245.4564  161.3396  177.8322 H        96        0    0.0000
   1464 H         246.5294  159.3074  178.2312 H        96        0    0.0000
   1465 H         248.9213  161.2190  178.4956 H        96        0    0.0000
   1466 H         249.0412  159.4884  178.2040 H        96        0    0.0000
   1467 H         248.3116  160.5346  176.9667 H        96        0    0.0000
   1468 H         131.4396  241.8831  185.2307 H         0        0    0.0000
@<TRIPOS>BOND
     1     1     2      1
     2     1     6      1
     3     1     8      1
     4     1     9      1
     5     2     3      1
     6     2    10      1
     7     2    11      1
     8     3     4      1
     9     3     5      1
    10     3    12      1
    11     4    13      1
    12     4    14      1
    13     4  1468      H
    14     5     6      1
    15     5    15      1
    16     5    16      1
    17     6     7      1
    18     6    17      1
    19     7    18      1
    20     7    19      1
    21     7    23      1
    22    20    21      1
    23    20    25      1
    24    20    27      1
    25    20    28      1
    26    21    22      1
    27    21    29      1
    28    21    30      1
    29    22    23      1
    30    22    24      1
    31    22    31      1
    32    23    32      1
    33    23    33      1
    34    24    25      1
    35    24    34      1
    36    24    35      1
    37    25    26      1
    38    25    36      1
    39    26    37      1
    40    26    38      1
    41    26    39      1
    42    39    40      1
    43    39    41      1
    44    39    42      1
    45    40    43      1
    46    40    44      1
    47    40    48      1
    48    45    46      1
    49    45    50      1
    50    45    52      1
    51    45    53      1
    52    46    47      1
    53    46    54      1
    54    46    55      1
    55    47    48      1
    56    47    49      1
    57    47    56      1
    58    48    57      1
    59    48    58      1
    60    49    50      1
    61    49    59      1
    62    49    60      1
    63    50    51      1
    64    50    61      1
    65    51    62      1
    66    51    63      1
    67    51    64      1
    68    64    65      1
    69    64    66      1
    70    64    67      1
    71    65    68      1
    72    65    69      1
    73    65    73      1
    74    70    71      1
    75    70    75      1
    76    70    77      1
    77    70    78      1
    78    71    72      1
    79    71    79      1
    80    71    80      1
    81    72    73      1
    82    72    74      1
    83    72    81      1
    84    73    82      1
    85    73    83      1
    86    74    75      1
    87    74    84      1
    88    74    85      1
    89    75    76      1
    90    75    86      1
    91    76    87      1
    92    76    88      1
    93    76    92      1
    94    89    90      1
    95    89    94      1
    96    89    96      1
    97    89    97      1
    98    90    91      1
    99    90    98      1
   100    90    99      1
   101    91    92      1
   102    91    93      1
   103    91   100      1
   104    92   101      1
   105    92   102      1
   106    93    94      1
   107    93   103      1
   108    93   104      1
   109    94    95      1
   110    94   105      1
   111    95   106      1
   112    95   107      1
   113    95   108      1
   114   108   109      1
   115   108   110      1
   116   108   111      1
   117   109   112      1
   118   109   113      1
   119   109   114      1
   120   114   115      1
   121   114   116      1
   122   114   117      1
   123   115   118      1
   124   115   119      1
   125   115   120      1
   126   120   121      1
   127   120   122      1
   128   120   123      1
   129   121   124      1
   130   121   125      1
   131   121   126      1
   132   126   127      1
   133   126   128      1
   134   126   129      1
   135   127   130      1
   136   127   131      1
   137   127   135      1
   138   132   133      1
   139   132   137      1
   140   132   139      1
   141   132   140      1
   142   133   134      1
   143   133   141      1
   144   133   142      1
   145   134   135      1
   146   134   136      1
   147   134   143      1
   148   135   144      1
   149   135   145      1
   150   136   137      1
   151   136   146      1
   152   136   147      1
   153   137   138      1
   154   137   148      1
   155   138   149      1
   156   138   150      1
   157   138   154      1
   158   151   152      1
   159   151   156      1
   160   151   158      1
   161   151   159      1
   162   152   153      1
   163   152   160      1
   164   152   161      1
   165   153   154      1
   166   153   155      1
   167   153   162      1
   168   154   163      1
   169   154   164      1
   170   155   156      1
   171   155   165      1
   172   155   166      1
   173   156   157      1
   174   156   167      1
   175   157   168      1
   176   157   169      1
   177   157   170      1
   178   170   171      1
   179   170   172      1
   180   170   173      1
   181   171   174      1
   182   171   175      1
   183   171   179      1
   184   176   177      1
   185   176   181      1
   186   176   183      1
   187   176   184      1
   188   177   178      1
   189   177   185      1
   190   177   186      1
   191   178   179      1
   192   178   180      1
   193   178   187      1
   194   179   188      1
   195   179   189      1
   196   180   181      1
   197   180   190      1
   198   180   191      1
   199   181   182      1
   200   181   192      1
   201   182   193      1
   202   182   194      1
   203   182   195      1
   204   195   196      1
   205   195   197      1
   206   195   198      1
   207   196   199      1
   208   196   200      1
   209   196   204      1
   210   201   202      1
   211   201   206      1
   212   201   208      1
   213   201   209      1
   214   202   203      1
   215   202   210      1
   216   202   211      1
   217   203   204      1
   218   203   205      1
   219   203   212      1
   220   204   213      1
   221   204   214      1
   222   205   206      1
   223   205   215      1
   224   205   216      1
   225   206   207      1
   226   206   217      1
   227   207   218      1
   228   207   219      1
   229   207   223      1
   230   220   221      1
   231   220   225      1
   232   220   227      1
   233   220   228      1
   234   221   222      1
   235   221   229      1
   236   221   230      1
   237   222   223      1
   238   222   224      1
   239   222   231      1
   240   223   232      1
   241   223   233      1
   242   224   225      1
   243   224   234      1
   244   224   235      1
   245   225   226      1
   246   225   236      1
   247   226   237      1
   248   226   238      1
   249   226   242      1
   250   239   240      1
   251   239   244      1
   252   239   246      1
   253   239   247      1
   254   240   241      1
   255   240   248      1
   256   240   249      1
   257   241   242      1
   258   241   243      1
   259   241   250      1
   260   242   251      1
   261   242   252      1
   262   243   244      1
   263   243   253      1
   264   243   254      1
   265   244   245      1
   266   244   255      1
   267   245   256      1
   268   245   257      1
   269   245   261      1
   270   258   259      1
   271   258   263      1
   272   258   265      1
   273   258   266      1
   274   259   260      1
   275   259   267      1
   276   259   268      1
   277   260   261      1
   278   260   262      1
   279   260   269      1
   280   261   270      1
   281   261   271      1
   282   262   263      1
   283   262   272      1
   284   262   273      1
   285   263   264      1
   286   263   274      1
   287   264   275      1
   288   264   276      1
   289   264   277      1
   290   277   278      1
   291   277   279      1
   292   277   280      1
   293   278   281      1
   294   278   282      1
   295   278   286      1
   296   283   284      1
   297   283   288      1
   298   283   290      1
   299   283   291      1
   300   284   285      1
   301   284   292      1
   302   284   293      1
   303   285   286      1
   304   285   287      1
   305   285   294      1
   306   286   295      1
   307   286   296      1
   308   287   288      1
   309   287   297      1
   310   287   298      1
   311   288   289      1
   312   288   299      1
   313   289   300      1
   314   289   301      1
   315   289   305      1
   316   302   303      1
   317   302   307      1
   318   302   309      1
   319   302   310      1
   320   303   304      1
   321   303   311      1
   322   303   312      1
   323   304   305      1
   324   304   306      1
   325   304   313      1
   326   305   314      1
   327   305   315      1
   328   306   307      1
   329   306   316      1
   330   306   317      1
   331   307   308      1
   332   307   318      1
   333   308   319      1
   334   308   320      1
   335   308   324      1
   336   321   322      1
   337   321   326      1
   338   321   328      1
   339   321   329      1
   340   322   323      1
   341   322   330      1
   342   322   331      1
   343   323   324      1
   344   323   325      1
   345   323   332      1
   346   324   333      1
   347   324   334      1
   348   325   326      1
   349   325   335      1
   350   325   336      1
   351   326   327      1
   352   326   337      1
   353   327   338      1
   354   327   339      1
   355   327   343      1
   356   340   341      1
   357   340   345      1
   358   340   347      1
   359   340   348      1
   360   341   342      1
   361   341   349      1
   362   341   350      1
   363   342   343      1
   364   342   344      1
   365   342   351      1
   366   343   352      1
   367   343   353      1
   368   344   345      1
   369   344   354      1
   370   344   355      1
   371   345   346      1
   372   345   356      1
   373   346   357      1
   374   346   358      1
   375   346   362      1
   376   359   360      1
   377   359   364      1
   378   359   366      1
   379   359   367      1
   380   360   361      1
   381   360   368      1
   382   360   369      1
   383   361   362      1
   384   361   363      1
   385   361   370      1
   386   362   371      1
   387   362   372      1
   388   363   364      1
   389   363   373      1
   390   363   374      1
   391   364   365      1
   392   364   375      1
   393   365   376      1
   394   365   377      1
   395   365   381      1
   396   378   379      1
   397   378   383      1
   398   378   385      1
   399   378   386      1
   400   379   380      1
   401   379   387      1
   402   379   388      1
   403   380   381      1
   404   380   382      1
   405   380   389      1
   406   381   390      1
   407   381   391      1
   408   382   383      1
   409   382   392      1
   410   382   393      1
   411   383   384      1
   412   383   394      1
   413   384   395      1
   414   384   396      1
   415   384   397      1
   416   397   398      1
   417   397   399      1
   418   397   400      1
   419   398   401      1
   420   398   402      1
   421   398   406      1
   422   403   404      1
   423   403   408      1
   424   403   410      1
   425   403   411      1
   426   404   405      1
   427   404   412      1
   428   404   413      1
   429   405   406      1
   430   405   407      1
   431   405   414      1
   432   406   415      1
   433   406   416      1
   434   407   408      1
   435   407   417      1
   436   407   418      1
   437   408   409      1
   438   408   419      1
   439   409   420      1
   440   409   421      1
   441   409   425      1
   442   422   423      1
   443   422   427      1
   444   422   429      1
   445   422   430      1
   446   423   424      1
   447   423   431      1
   448   423   432      1
   449   424   425      1
   450   424   426      1
   451   424   433      1
   452   425   434      1
   453   425   435      1
   454   426   427      1
   455   426   436      1
   456   426   437      1
   457   427   428      1
   458   427   438      1
   459   428   439      1
   460   428   440      1
   461   428   444      1
   462   441   442      1
   463   441   446      1
   464   441   448      1
   465   441   449      1
   466   442   443      1
   467   442   450      1
   468   442   451      1
   469   443   444      1
   470   443   445      1
   471   443   452      1
   472   444   453      1
   473   444   454      1
   474   445   446      1
   475   445   455      1
   476   445   456      1
   477   446   447      1
   478   446   457      1
   479   447   458      1
   480   447   459      1
   481   447   463      1
   482   460   461      1
   483   460   465      1
   484   460   467      1
   485   460   468      1
   486   461   462      1
   487   461   469      1
   488   461   470      1
   489   462   463      1
   490   462   464      1
   491   462   471      1
   492   463   472      1
   493   463   473      1
   494   464   465      1
   495   464   474      1
   496   464   475      1
   497   465   466      1
   498   465   476      1
   499   466   477      1
   500   466   478      1
   501   466   479      1
   502   479   480      1
   503   479   481      1
   504   479   482      1
   505   480   483      1
   506   480   484      1
   507   480   488      1
   508   485   486      1
   509   485   490      1
   510   485   492      1
   511   485   493      1
   512   486   487      1
   513   486   494      1
   514   486   495      1
   515   487   488      1
   516   487   489      1
   517   487   496      1
   518   488   497      1
   519   488   498      1
   520   489   490      1
   521   489   499      1
   522   489   500      1
   523   490   491      1
   524   490   501      1
   525   491   502      1
   526   491   503      1
   527   491   507      1
   528   504   505      1
   529   504   509      1
   530   504   511      1
   531   504   512      1
   532   505   506      1
   533   505   513      1
   534   505   514      1
   535   506   507      1
   536   506   508      1
   537   506   515      1
   538   507   516      1
   539   507   517      1
   540   508   509      1
   541   508   518      1
   542   508   519      1
   543   509   510      1
   544   509   520      1
   545   510   521      1
   546   510   522      1
   547   510   526      1
   548   523   524      1
   549   523   528      1
   550   523   530      1
   551   523   531      1
   552   524   525      1
   553   524   532      1
   554   524   533      1
   555   525   526      1
   556   525   527      1
   557   525   534      1
   558   526   535      1
   559   526   536      1
   560   527   528      1
   561   527   537      1
   562   527   538      1
   563   528   529      1
   564   528   539      1
   565   529   540      1
   566   529   541      1
   567   529   545      1
   568   542   543      1
   569   542   547      1
   570   542   549      1
   571   542   550      1
   572   543   544      1
   573   543   551      1
   574   543   552      1
   575   544   545      1
   576   544   546      1
   577   544   553      1
   578   545   554      1
   579   545   555      1
   580   546   547      1
   581   546   556      1
   582   546   557      1
   583   547   548      1
   584   547   558      1
   585   548   559      1
   586   548   560      1
   587   548   564      1
   588   561   562      1
   589   561   566      1
   590   561   568      1
   591   561   569      1
   592   562   563      1
   593   562   570      1
   594   562   571      1
   595   563   564      1
   596   563   565      1
   597   563   572      1
   598   564   573      1
   599   564   574      1
   600   565   566      1
   601   565   575      1
   602   565   576      1
   603   566   567      1
   604   566   577      1
   605   567   578      1
   606   567   579      1
   607   567   583      1
   608   580   581      1
   609   580   585      1
   610   580   587      1
   611   580   588      1
   612   581   582      1
   613   581   589      1
   614   581   590      1
   615   582   583      1
   616   582   584      1
   617   582   591      1
   618   583   592      1
   619   583   593      1
   620   584   585      1
   621   584   594      1
   622   584   595      1
   623   585   586      1
   624   585   596      1
   625   586   597      1
   626   586   598      1
   627   586   602      1
   628   599   600      1
   629   599   604      1
   630   599   606      1
   631   599   607      1
   632   600   601      1
   633   600   608      1
   634   600   609      1
   635   601   602      1
   636   601   603      1
   637   601   610      1
   638   602   611      1
   639   602   612      1
   640   603   604      1
   641   603   613      1
   642   603   614      1
   643   604   605      1
   644   604   615      1
   645   605   616      1
   646   605   617      1
   647   605   621      1
   648   618   619      1
   649   618   623      1
   650   618   625      1
   651   618   626      1
   652   619   620      1
   653   619   627      1
   654   619   628      1
   655   620   621      1
   656   620   622      1
   657   620   629      1
   658   621   630      1
   659   621   631      1
   660   622   623      1
   661   622   632      1
   662   622   633      1
   663   623   624      1
   664   623   634      1
   665   624   635      1
   666   624   636      1
   667   624   640      1
   668   637   638      1
   669   637   642      1
   670   637   644      1
   671   637   645      1
   672   638   639      1
   673   638   646      1
   674   638   647      1
   675   639   640      1
   676   639   641      1
   677   639   648      1
   678   640   649      1
   679   640   650      1
   680   641   642      1
   681   641   651      1
   682   641   652      1
   683   642   643      1
   684   642   653      1
   685   643   654      1
   686   643   655      1
   687   643   659      1
   688   656   657      1
   689   656   661      1
   690   656   663      1
   691   656   664      1
   692   657   658      1
   693   657   665      1
   694   657   666      1
   695   658   659      1
   696   658   660      1
   697   658   667      1
   698   659   668      1
   699   659   669      1
   700   660   661      1
   701   660   670      1
   702   660   671      1
   703   661   662      1
   704   661   672      1
   705   662   673      1
   706   662   674      1
   707   662   675      1
   708   675   676      1
   709   675   677      1
   710   675   678      1
   711   676   679      1
   712   676   680      1
   713   676   684      1
   714   681   682      1
   715   681   686      1
   716   681   688      1
   717   681   689      1
   718   682   683      1
   719   682   690      1
   720   682   691      1
   721   683   684      1
   722   683   685      1
   723   683   692      1
   724   684   693      1
   725   684   694      1
   726   685   686      1
   727   685   695      1
   728   685   696      1
   729   686   687      1
   730   686   697      1
   731   687   698      1
   732   687   699      1
   733   687   703      1
   734   700   701      1
   735   700   705      1
   736   700   707      1
   737   700   708      1
   738   701   702      1
   739   701   709      1
   740   701   710      1
   741   702   703      1
   742   702   704      1
   743   702   711      1
   744   703   712      1
   745   703   713      1
   746   704   705      1
   747   704   714      1
   748   704   715      1
   749   705   706      1
   750   705   716      1
   751   706   717      1
   752   706   718      1
   753   706   722      1
   754   719   720      1
   755   719   724      1
   756   719   726      1
   757   719   727      1
   758   720   721      1
   759   720   728      1
   760   720   729      1
   761   721   722      1
   762   721   723      1
   763   721   730      1
   764   722   731      1
   765   722   732      1
   766   723   724      1
   767   723   733      1
   768   723   734      1
   769   724   725      1
   770   724   735      1
   771   725   736      1
   772   725   737      1
   773   725   741      1
   774   738   739      1
   775   738   743      1
   776   738   745      1
   777   738   746      1
   778   739   740      1
   779   739   747      1
   780   739   748      1
   781   740   741      1
   782   740   742      1
   783   740   749      1
   784   741   750      1
   785   741   751      1
   786   742   743      1
   787   742   752      1
   788   742   753      1
   789   743   744      1
   790   743   754      1
   791   744   755      1
   792   744   756      1
   793   744   760      1
   794   757   758      1
   795   757   762      1
   796   757   764      1
   797   757   765      1
   798   758   759      1
   799   758   766      1
   800   758   767      1
   801   759   760      1
   802   759   761      1
   803   759   768      1
   804   760   769      1
   805   760   770      1
   806   761   762      1
   807   761   771      1
   808   761   772      1
   809   762   763      1
   810   762   773      1
   811   763   774      1
   812   763   775      1
   813   763   779      1
   814   776   777      1
   815   776   781      1
   816   776   783      1
   817   776   784      1
   818   777   778      1
   819   777   785      1
   820   777   786      1
   821   778   779      1
   822   778   780      1
   823   778   787      1
   824   779   788      1
   825   779   789      1
   826   780   781      1
   827   780   790      1
   828   780   791      1
   829   781   782      1
   830   781   792      1
   831   782   793      1
   832   782   794      1
   833   782   795      1
   834   795   796      1
   835   795   797      1
   836   795   798      1
   837   796   799      1
   838   796   800      1
   839   796   804      1
   840   801   802      1
   841   801   806      1
   842   801   808      1
   843   801   809      1
   844   802   803      1
   845   802   810      1
   846   802   811      1
   847   803   804      1
   848   803   805      1
   849   803   812      1
   850   804   813      1
   851   804   814      1
   852   805   806      1
   853   805   815      1
   854   805   816      1
   855   806   807      1
   856   806   817      1
   857   807   818      1
   858   807   819      1
   859   807   823      1
   860   820   821      1
   861   820   825      1
   862   820   827      1
   863   820   828      1
   864   821   822      1
   865   821   829      1
   866   821   830      1
   867   822   823      1
   868   822   824      1
   869   822   831      1
   870   823   832      1
   871   823   833      1
   872   824   825      1
   873   824   834      1
   874   824   835      1
   875   825   826      1
   876   825   836      1
   877   826   837      1
   878   826   838      1
   879   826   839      1
   880   839   840      1
   881   839   841      1
   882   839   842      1
   883   840   843      1
   884   840   844      1
   885   840   848      1
   886   845   846      1
   887   845   850      1
   888   845   852      1
   889   845   853      1
   890   846   847      1
   891   846   854      1
   892   846   855      1
   893   847   848      1
   894   847   849      1
   895   847   856      1
   896   848   857      1
   897   848   858      1
   898   849   850      1
   899   849   859      1
   900   849   860      1
   901   850   851      1
   902   850   861      1
   903   851   862      1
   904   851   863      1
   905   851   867      1
   906   864   865      1
   907   864   869      1
   908   864   871      1
   909   864   872      1
   910   865   866      1
   911   865   873      1
   912   865   874      1
   913   866   867      1
   914   866   868      1
   915   866   875      1
   916   867   876      1
   917   867   877      1
   918   868   869      1
   919   868   878      1
   920   868   879      1
   921   869   870      1
   922   869   880      1
   923   870   881      1
   924   870   882      1
   925   870   883      1
   926   883   884      1
   927   883   885      1
   928   883   886      1
   929   884   887      1
   930   884   888      1
   931   884   892      1
   932   889   890      1
   933   889   894      1
   934   889   896      1
   935   889   897      1
   936   890   891      1
   937   890   898      1
   938   890   899      1
   939   891   892      1
   940   891   893      1
   941   891   900      1
   942   892   901      1
   943   892   902      1
   944   893   894      1
   945   893   903      1
   946   893   904      1
   947   894   895      1
   948   894   905      1
   949   895   906      1
   950   895   907      1
   951   895   908      1
   952   908   909      1
   953   908   910      1
   954   908   911      1
   955   909   912      1
   956   909   913      1
   957   909   917      1
   958   914   915      1
   959   914   919      1
   960   914   921      1
   961   914   922      1
   962   915   916      1
   963   915   923      1
   964   915   924      1
   965   916   917      1
   966   916   918      1
   967   916   925      1
   968   917   926      1
   969   917   927      1
   970   918   919      1
   971   918   928      1
   972   918   929      1
   973   919   920      1
   974   919   930      1
   975   920   931      1
   976   920   932      1
   977   920   936      1
   978   933   934      1
   979   933   938      1
   980   933   940      1
   981   933   941      1
   982   934   935      1
   983   934   942      1
   984   934   943      1
   985   935   936      1
   986   935   937      1
   987   935   944      1
   988   936   945      1
   989   936   946      1
   990   937   938      1
   991   937   947      1
   992   937   948      1
   993   938   939      1
   994   938   949      1
   995   939   950      1
   996   939   951      1
   997   939   955      1
   998   952   953      1
   999   952   957      1
  1000   952   959      1
  1001   952   960      1
  1002   953   954      1
  1003   953   961      1
  1004   953   962      1
  1005   954   955      1
  1006   954   956      1
  1007   954   963      1
  1008   955   964      1
  1009   955   965      1
  1010   956   957      1
  1011   956   966      1
  1012   956   967      1
  1013   957   958      1
  1014   957   968      1
  1015   958   969      1
  1016   958   970      1
  1017   958   971      1
  1018   971   972      1
  1019   971   973      1
  1020   971   974      1
  1021   972   975      1
  1022   972   976      1
  1023   972   980      1
  1024   977   978      1
  1025   977   982      1
  1026   977   984      1
  1027   977   985      1
  1028   978   979      1
  1029   978   986      1
  1030   978   987      1
  1031   979   980      1
  1032   979   981      1
  1033   979   988      1
  1034   980   989      1
  1035   980   990      1
  1036   981   982      1
  1037   981   991      1
  1038   981   992      1
  1039   982   983      1
  1040   982   993      1
  1041   983   994      1
  1042   983   995      1
  1043   983   999      1
  1044   996   997      1
  1045   996  1001      1
  1046   996  1003      1
  1047   996  1004      1
  1048   997   998      1
  1049   997  1005      1
  1050   997  1006      1
  1051   998   999      1
  1052   998  1000      1
  1053   998  1007      1
  1054   999  1008      1
  1055   999  1009      1
  1056  1000  1001      1
  1057  1000  1010      1
  1058  1000  1011      1
  1059  1001  1002      1
  1060  1001  1012      1
  1061  1002  1013      1
  1062  1002  1014      1
  1063  1002  1015      1
  1064  1015  1016      1
  1065  1015  1017      1
  1066  1015  1018      1
  1067  1016  1019      1
  1068  1016  1020      1
  1069  1016  1024      1
  1070  1021  1022      1
  1071  1021  1026      1
  1072  1021  1028      1
  1073  1021  1029      1
  1074  1022  1023      1
  1075  1022  1030      1
  1076  1022  1031      1
  1077  1023  1024      1
  1078  1023  1025      1
  1079  1023  1032      1
  1080  1024  1033      1
  1081  1024  1034      1
  1082  1025  1026      1
  1083  1025  1035      1
  1084  1025  1036      1
  1085  1026  1027      1
  1086  1026  1037      1
  1087  1027  1038      1
  1088  1027  1039      1
  1089  1027  1043      1
  1090  1040  1041      1
  1091  1040  1045      1
  1092  1040  1047      1
  1093  1040  1048      1
  1094  1041  1042      1
  1095  1041  1049      1
  1096  1041  1050      1
  1097  1042  1043      1
  1098  1042  1044      1
  1099  1042  1051      1
  1100  1043  1052      1
  1101  1043  1053      1
  1102  1044  1045      1
  1103  1044  1054      1
  1104  1044  1055      1
  1105  1045  1046      1
  1106  1045  1056      1
  1107  1046  1057      1
  1108  1046  1058      1
  1109  1046  1059      1
  1110  1059  1060      1
  1111  1059  1061      1
  1112  1059  1062      1
  1113  1060  1063      1
  1114  1060  1064      1
  1115  1060  1068      1
  1116  1065  1066      1
  1117  1065  1070      1
  1118  1065  1072      1
  1119  1065  1073      1
  1120  1066  1067      1
  1121  1066  1074      1
  1122  1066  1075      1
  1123  1067  1068      1
  1124  1067  1069      1
  1125  1067  1076      1
  1126  1068  1077      1
  1127  1068  1078      1
  1128  1069  1070      1
  1129  1069  1079      1
  1130  1069  1080      1
  1131  1070  1071      1
  1132  1070  1081      1
  1133  1071  1082      1
  1134  1071  1083      1
  1135  1071  1087      1
  1136  1084  1085      1
  1137  1084  1089      1
  1138  1084  1091      1
  1139  1084  1092      1
  1140  1085  1086      1
  1141  1085  1093      1
  1142  1085  1094      1
  1143  1086  1087      1
  1144  1086  1088      1
  1145  1086  1095      1
  1146  1087  1096      1
  1147  1087  1097      1
  1148  1088  1089      1
  1149  1088  1098      1
  1150  1088  1099      1
  1151  1089  1090      1
  1152  1089  1100      1
  1153  1090  1101      1
  1154  1090  1102      1
  1155  1090  1103      1
  1156  1103  1104      1
  1157  1103  1105      1
  1158  1103  1106      1
  1159  1104  1107      1
  1160  1104  1108      1
  1161  1104  1109      1
  1162  1109  1110      1
  1163  1109  1111      1
  1164  1109  1112      1
  1165  1110  1113      1
  1166  1110  1114      1
  1167  1110  1118      1
  1168  1115  1116      1
  1169  1115  1120      1
  1170  1115  1122      1
  1171  1115  1123      1
  1172  1116  1117      1
  1173  1116  1124      1
  1174  1116  1125      1
  1175  1117  1118      1
  1176  1117  1119      1
  1177  1117  1126      1
  1178  1118  1127      1
  1179  1118  1128      1
  1180  1119  1120      1
  1181  1119  1129      1
  1182  1119  1130      1
  1183  1120  1121      1
  1184  1120  1131      1
  1185  1121  1132      1
  1186  1121  1133      1
  1187  1121  1137      1
  1188  1134  1135      1
  1189  1134  1139      1
  1190  1134  1141      1
  1191  1134  1142      1
  1192  1135  1136      1
  1193  1135  1143      1
  1194  1135  1144      1
  1195  1136  1137      1
  1196  1136  1138      1
  1197  1136  1145      1
  1198  1137  1146      1
  1199  1137  1147      1
  1200  1138  1139      1
  1201  1138  1148      1
  1202  1138  1149      1
  1203  1139  1140      1
  1204  1139  1150      1
  1205  1140  1151      1
  1206  1140  1152      1
  1207  1140  1153      1
  1208  1153  1154      1
  1209  1153  1155      1
  1210  1153  1156      1
  1211  1154  1157      1
  1212  1154  1158      1
  1213  1154  1162      1
  1214  1159  1160      1
  1215  1159  1164      1
  1216  1159  1166      1
  1217  1159  1167      1
  1218  1160  1161      1
  1219  1160  1168      1
  1220  1160  1169      1
  1221  1161  1162      1
  1222  1161  1163      1
  1223  1161  1170      1
  1224  1162  1171      1
  1225  1162  1172      1
  1226  1163  1164      1
  1227  1163  1173      1
  1228  1163  1174      1
  1229  1164  1165      1
  1230  1164  1175      1
  1231  1165  1176      1
  1232  1165  1177      1
  1233  1165  1181      1
  1234  1178  1179      1
  1235  1178  1183      1
  1236  1178  1185      1
  1237  1178  1186      1
  1238  1179  1180      1
  1239  1179  1187      1
  1240  1179  1188      1
  1241  1180  1181      1
  1242  1180  1182      1
  1243  1180  1189      1
  1244  1181  1190      1
  1245  1181  1191      1
  1246  1182  1183      1
  1247  1182  1192      1
  1248  1182  1193      1
  1249  1183  1184      1
  1250  1183  1194      1
  1251  1184  1195      1
  1252  1184  1196      1
  1253  1184  1200      1
  1254  1197  1198      1
  1255  1197  1202      1
  1256  1197  1204      1
  1257  1197  1205      1
  1258  1198  1199      1
  1259  1198  1206      1
  1260  1198  1207      1
  1261  1199  1200      1
  1262  1199  1201      1
  1263  1199  1208      1
  1264  1200  1209      1
  1265  1200  1210      1
  1266  1201  1202      1
  1267  1201  1211      1
  1268  1201  1212      1
  1269  1202  1203      1
  1270  1202  1213      1
  1271  1203  1214      1
  1272  1203  1215      1
  1273  1203  1219      1
  1274  1216  1217      1
  1275  1216  1221      1
  1276  1216  1223      1
  1277  1216  1224      1
  1278  1217  1218      1
  1279  1217  1225      1
  1280  1217  1226      1
  1281  1218  1219      1
  1282  1218  1220      1
  1283  1218  1227      1
  1284  1219  1228      1
  1285  1219  1229      1
  1286  1220  1221      1
  1287  1220  1230      1
  1288  1220  1231      1
  1289  1221  1222      1
  1290  1221  1232      1
  1291  1222  1233      1
  1292  1222  1234      1
  1293  1222  1235      1
  1294  1235  1236      1
  1295  1235  1237      1
  1296  1235  1238      1
  1297  1236  1239      1
  1298  1236  1240      1
  1299  1236  1244      1
  1300  1241  1242      1
  1301  1241  1246      1
  1302  1241  1248      1
  1303  1241  1249      1
  1304  1242  1243      1
  1305  1242  1250      1
  1306  1242  1251      1
  1307  1243  1244      1
  1308  1243  1245      1
  1309  1243  1252      1
  1310  1244  1253      1
  1311  1244  1254      1
  1312  1245  1246      1
  1313  1245  1255      1
  1314  1245  1256      1
  1315  1246  1247      1
  1316  1246  1257      1
  1317  1247  1258      1
  1318  1247  1259      1
  1319  1247  1260      1
  1320  1260  1261      1
  1321  1260  1262      1
  1322  1260  1263      1
  1323  1261  1264      1
  1324  1261  1265      1
  1325  1261  1269      1
  1326  1266  1267      1
  1327  1266  1271      1
  1328  1266  1273      1
  1329  1266  1274      1
  1330  1267  1268      1
  1331  1267  1275      1
  1332  1267  1276      1
  1333  1268  1269      1
  1334  1268  1270      1
  1335  1268  1277      1
  1336  1269  1278      1
  1337  1269  1279      1
  1338  1270  1271      1
  1339  1270  1280      1
  1340  1270  1281      1
  1341  1271  1272      1
  1342  1271  1282      1
  1343  1272  1283      1
  1344  1272  1284      1
  1345  1272  1288      1
  1346  1285  1286      1
  1347  1285  1290      1
  1348  1285  1292      1
  1349  1285  1293      1
  1350  1286  1287      1
  1351  1286  1294      1
  1352  1286  1295      1
  1353  1287  1288      1
  1354  1287  1289      1
  1355  1287  1296      1
  1356  1288  1297      1
  1357  1288  1298      1
  1358  1289  1290      1
  1359  1289  1299      1
  1360  1289  1300      1
  1361  1290  1291      1
  1362  1290  1301      1
  1363  1291  1302      1
  1364  1291  1303      1
  1365  1291  1307      1
  1366  1304  1305      1
  1367  1304  1309      1
  1368  1304  1311      1
  1369  1304  1312      1
  1370  1305  1306      1
  1371  1305  1313      1
  1372  1305  1314      1
  1373  1306  1307      1
  1374  1306  1308      1
  1375  1306  1315      1
  1376  1307  1316      1
  1377  1307  1317      1
  1378  1308  1309      1
  1379  1308  1318      1
  1380  1308  1319      1
  1381  1309  1310      1
  1382  1309  1320      1
  1383  1310  1321      1
  1384  1310  1322      1
  1385  1310  1326      1
  1386  1323  1324      1
  1387  1323  1328      1
  1388  1323  1330      1
  1389  1323  1331      1
  1390  1324  1325      1
  1391  1324  1332      1
  1392  1324  1333      1
  1393  1325  1326      1
  1394  1325  1327      1
  1395  1325  1334      1
  1396  1326  1335      1
  1397  1326  1336      1
  1398  1327  1328      1
  1399  1327  1337      1
  1400  1327  1338      1
  1401  1328  1329      1
  1402  1328  1339      1
  1403  1329  1340      1
  1404  1329  1341      1
  1405  1329  1342      1
  1406  1342  1343      1
  1407  1342  1344      1
  1408  1342  1345      1
  1409  1343  1346      1
  1410  1343  1347      1
  1411  1343  1348      1
  1412  1348  1349      1
  1413  1348  1350      1
  1414  1348  1351      1
  1415  1349  1352      1
  1416  1349  1353      1
  1417  1349  1357      1
  1418  1354  1355      1
  1419  1354  1359      1
  1420  1354  1361      1
  1421  1354  1362      1
  1422  1355  1356      1
  1423  1355  1363      1
  1424  1355  1364      1
  1425  1356  1357      1
  1426  1356  1358      1
  1427  1356  1365      1
  1428  1357  1366      1
  1429  1357  1367      1
  1430  1358  1359      1
  1431  1358  1368      1
  1432  1358  1369      1
  1433  1359  1360      1
  1434  1359  1370      1
  1435  1360  1371      1
  1436  1360  1372      1
  1437  1360  1373      1
  1438  1373  1374      1
  1439  1373  1375      1
  1440  1373  1376      1
  1441  1374  1377      1
  1442  1374  1378      1
  1443  1374  1382      1
  1444  1379  1380      1
  1445  1379  1384      1
  1446  1379  1386      1
  1447  1379  1387      1
  1448  1380  1381      1
  1449  1380  1388      1
  1450  1380  1389      1
  1451  1381  1382      1
  1452  1381  1383      1
  1453  1381  1390      1
  1454  1382  1391      1
  1455  1382  1392      1
  1456  1383  1384      1
  1457  1383  1393      1
  1458  1383  1394      1
  1459  1384  1385      1
  1460  1384  1395      1
  1461  1385  1396      1
  1462  1385  1397      1
  1463  1385  1398      1
  1464  1398  1399      1
  1465  1398  1400      1
  1466  1398  1401      1
  1467  1399  1402      1
  1468  1399  1403      1
  1469  1399  1404      1
  1470  1404  1405      1
  1471  1404  1406      1
  1472  1404  1407      1
  1473  1405  1408      1
  1474  1405  1409      1
  1475  1405  1413      1
  1476  1410  1411      1
  1477  1410  1415      1
  1478  1410  1417      1
  1479  1410  1418      1
  1480  1411  1412      1
  1481  1411  1419      1
  1482  1411  1420      1
  1483  1412  1413      1
  1484  1412  1414      1
  1485  1412  1421      1
  1486  1413  1422      1
  1487  1413  1423      1
  1488  1414  1415      1
  1489  1414  1424      1
  1490  1414  1425      1
  1491  1415  1416      1
  1492  1415  1426      1
  1493  1416  1427      1
  1494  1416  1428      1
  1495  1416  1432      1
  1496  1429  1430      1
  1497  1429  1434      1
  1498  1429  1436      1
  1499  1429  1437      1
  1500  1430  1431      1
  1501  1430  1438      1
  1502  1430  1439      1
  1503  1431  1432      1
  1504  1431  1433      1
  1505  1431  1440      1
  1506  1432  1441      1
  1507  1432  1442      1
  1508  1433  1434      1
  1509  1433  1443      1
  1510  1433  1444      1
  1511  1434  1435      1
  1512  1434  1445      1
  1513  1435  1446      1
  1514  1435  1447      1
  1515  1435  1451      1
  1516  1448  1449      1
  1517  1448  1453      1
  1518  1448  1455      1
  1519  1448  1456      1
  1520  1449  1450      1
  1521  1449  1457      1
  1522  1449  1458      1
  1523  1450  1451      1
  1524  1450  1452      1
  1525  1450  1459      1
  1526  1451  1460      1
  1527  1451  1461      1
  1528  1452  1453      1
  1529  1452  1462      1
  1530  1452  1463      1
  1531  1453  1454      1
  1532  1453  1464      1
  1533  1454  1465      1
  1534  1454  1466      1
  1535  1454  1467      H
