###
### Created by PolyChef-cpp17 on Wed Feb 26 21:14:12 2025
###

@<TRIPOS>MOLECULE
NO_INFO
1468 1535 1 0 0
SMALL
USER_CHARGES


@<TRIPOS>ATOM
      1 C         127.9918  188.6786  240.2561 C.3       0        0    0.0000
      2 C         129.4775  188.5677  240.5688 C.3       0        0    0.0000
      3 C         130.0729  188.0986  239.2372 C.3       0        0    0.0000
      4 C         131.4850  187.5110  239.3190 C.3       0        0    0.0000
      5 C         129.0045  187.1768  238.6174 C.3       0        0    0.0000
      6 C         127.7199  187.4136  239.4355 C.3       0        0    0.0000
      7 C         126.4164  187.4192  238.6311 C.3       0        0    0.0000
      8 H         127.3844  188.7172  241.1657 H         0        0    0.0000
      9 H         127.8018  189.5916  239.6812 H         0        0    0.0000
     10 H         129.8994  189.5238  240.8938 H         0        0    0.0000
     11 H         129.6335  187.8371  241.3701 H         0        0    0.0000
     12 H         130.1404  188.9849  238.5882 H         0        0    0.0000
     13 H         131.4236  186.4822  239.6930 H         0        0    0.0000
     14 H         131.9087  187.4544  238.3093 H         0        0    0.0000
     15 H         129.2778  186.1171  238.6637 H         0        0    0.0000
     16 H         128.8838  187.4184  237.5558 H         0        0    0.0000
     17 H         127.6425  186.5803  240.1501 H         0        0    0.0000
     18 H         125.5976  187.0748  239.2739 H         0        0    0.0000
     19 H         126.1779  188.4497  238.3422 H         0        0    0.0000
     20 C         126.6948  182.8508  236.9755 C.3       1        0    0.0000
     21 C         126.1687  184.0143  237.8195 C.3       1        0    0.0000
     22 C         127.1401  185.1887  237.6041 C.3       1        0    0.0000
     23 C         126.4516  186.5351  237.3484 C.3       1        0    0.0000
     24 C         128.0163  184.7487  236.4269 C.3       1        0    0.0000
     25 C         128.1253  183.2273  236.5747 C.3       1        0    0.0000
     26 C         129.1764  182.8125  237.6217 C.3       1        0    0.0000
     27 H         126.6214  181.8968  237.5062 H         1        0    0.0000
     28 H         126.0790  182.7638  236.0711 H         1        0    0.0000
     29 H         125.1401  184.2538  237.5281 H         1        0    0.0000
     30 H         126.1488  183.7378  238.8801 H         1        0    0.0000
     31 H         127.7809  185.2739  238.4934 H         1        0    0.0000
     32 H         126.9952  187.0783  236.5663 H         1        0    0.0000
     33 H         125.4321  186.3794  236.9771 H         1        0    0.0000
     34 H         128.9910  185.2474  236.4323 H         1        0    0.0000
     35 H         127.5260  184.9896  235.4748 H         1        0    0.0000
     36 H         128.3797  182.7807  235.6051 H         1        0    0.0000
     37 H         129.1218  181.7389  237.8335 H         1        0    0.0000
     38 H         128.9757  183.3339  238.5652 H         1        0    0.0000
     39 C         130.6197  183.1745  237.1659 C.3       2        0    0.0000
     40 C         131.6370  182.0404  237.3564 C.3       2        0    0.0000
     41 H         130.5648  183.4063  236.0946 H         2        0    0.0000
     42 H         130.9467  184.0922  237.6688 H         2        0    0.0000
     43 H         132.1179  182.0969  238.3400 H         2        0    0.0000
     44 H         131.0937  181.0872  237.3270 H         2        0    0.0000
     45 C         135.2053  184.5103  235.1356 C.3       3        0    0.0000
     46 C         134.4111  183.9293  236.3080 C.3       3        0    0.0000
     47 C         133.1050  183.3668  235.7191 C.3       3        0    0.0000
     48 C         132.7319  181.9719  236.2361 C.3       3        0    0.0000
     49 C         133.3297  183.3866  234.2037 C.3       3        0    0.0000
     50 C         134.2242  184.6072  233.9623 C.3       3        0    0.0000
     51 C         133.4274  185.9255  233.9465 C.3       3        0    0.0000
     52 H         135.6779  185.4622  235.3957 H         3        0    0.0000
     53 H         136.0109  183.8122  234.8742 H         3        0    0.0000
     54 H         135.0074  183.1689  236.8244 H         3        0    0.0000
     55 H         134.1822  184.7131  237.0395 H         3        0    0.0000
     56 H         132.2912  184.0681  235.9526 H         3        0    0.0000
     57 H         132.3438  181.3690  235.4065 H         3        0    0.0000
     58 H         133.6201  181.4543  236.6165 H         3        0    0.0000
     59 H         132.3864  183.4344  233.6499 H         3        0    0.0000
     60 H         133.8562  182.4781  233.8837 H         3        0    0.0000
     61 H         134.7564  184.4906  233.0096 H         3        0    0.0000
     62 H         134.0971  186.7927  233.9511 H         3        0    0.0000
     63 H         132.8147  185.9913  234.8534 H         3        0    0.0000
     64 C         132.4802  186.0132  232.7148 C.3       4        0    0.0000
     65 C         131.0691  185.4658  232.9728 C.3       4        0    0.0000
     66 H         132.3912  187.0767  232.4587 H         4        0    0.0000
     67 H         132.9475  185.5214  231.8536 H         4        0    0.0000
     68 H         130.8242  185.4820  234.0414 H         4        0    0.0000
     69 H         130.3502  186.1298  232.4760 H         4        0    0.0000
     70 C         131.6112  180.9893  231.4286 C.3       5        0    0.0000
     71 C         131.7737  181.7016  232.7741 C.3       5        0    0.0000
     72 C         132.1035  183.1644  232.4572 C.3       5        0    0.0000
     73 C         130.8288  184.0271  232.3975 C.3       5        0    0.0000
     74 C         132.8515  183.0433  231.1235 C.3       5        0    0.0000
     75 C         132.0724  181.9794  230.3461 C.3       5        0    0.0000
     76 C         132.9056  181.3503  229.2237 C.3       5        0    0.0000
     77 H         132.1981  180.0638  231.4268 H         5        0    0.0000
     78 H         130.5643  180.7099  231.2644 H         5        0    0.0000
     79 H         132.6154  181.2495  233.3140 H         5        0    0.0000
     80 H         130.8882  181.5861  233.4074 H         5        0    0.0000
     81 H         132.7722  183.5702  233.2272 H         5        0    0.0000
     82 H         130.0407  183.5470  232.9902 H         5        0    0.0000
     83 H         130.4474  184.1022  231.3735 H         5        0    0.0000
     84 H         133.8775  182.7012  231.3122 H         5        0    0.0000
     85 H         132.9170  183.9853  230.5710 H         5        0    0.0000
     86 H         131.1823  182.4525  229.9080 H         5        0    0.0000
     87 H         132.4659  180.3959  228.9115 H         5        0    0.0000
     88 H         133.9123  181.1294  229.5977 H         5        0    0.0000
     89 C         134.2752  179.6520  225.6097 C.3       6        0    0.0000
     90 C         134.0907  180.1916  227.0304 C.3       6        0    0.0000
     91 C         133.9186  181.7103  226.8953 C.3       6        0    0.0000
     92 C         133.0259  182.2948  227.9934 C.3       6        0    0.0000
     93 C         133.3715  181.8736  225.4733 C.3       6        0    0.0000
     94 C         134.2070  180.8671  224.6753 C.3       6        0    0.0000
     95 C         133.6356  180.5121  223.2997 C.3       6        0    0.0000
     96 H         135.2304  179.1269  225.5019 H         6        0    0.0000
     97 H         133.4805  178.9298  225.3874 H         6        0    0.0000
     98 H         134.9494  179.9487  227.6655 H         6        0    0.0000
     99 H         133.2081  179.7267  227.4857 H         6        0    0.0000
    100 H         134.9148  182.1736  226.9431 H         6        0    0.0000
    101 H         132.0218  182.4699  227.5888 H         6        0    0.0000
    102 H         133.4103  183.2690  228.3176 H         6        0    0.0000
    103 H         133.4973  182.8954  225.1016 H         6        0    0.0000
    104 H         132.3049  181.6198  225.4312 H         6        0    0.0000
    105 H         135.2244  181.2686  224.5605 H         6        0    0.0000
    106 H         134.0005  181.2165  222.5431 H         6        0    0.0000
    107 H         132.5438  180.6122  223.3245 H         6        0    0.0000
    108 C         133.9889  179.0620  222.8693 C.3       7        0    0.0000
    109 C         134.1254  178.8775  221.3512 C.3       7        0    0.0000
    110 H         134.9558  178.8216  223.3298 H         7        0    0.0000
    111 H         133.2580  178.3627  223.2920 H         7        0    0.0000
    112 H         133.1463  178.8925  220.8580 H         7        0    0.0000
    113 H         134.6899  179.7307  220.9539 H         7        0    0.0000
    114 C         134.9072  177.5838  220.9343 C.3       8        0    0.0000
    115 C         134.0693  176.5809  220.1285 C.3       8        0    0.0000
    116 H         135.2256  177.0930  221.8629 H         8        0    0.0000
    117 H         135.8218  177.8618  220.3973 H         8        0    0.0000
    118 H         133.0351  176.6314  220.4924 H         8        0    0.0000
    119 H         134.0409  176.8479  219.0656 H         8        0    0.0000
    120 C         134.5326  175.0913  220.2869 C.3       9        0    0.0000
    121 C         135.3724  174.5708  219.1117 C.3       9        0    0.0000
    122 H         135.1502  175.0462  221.1930 H         9        0    0.0000
    123 H         133.6616  174.4509  220.4692 H         9        0    0.0000
    124 H         134.7384  174.1367  218.3297 H         9        0    0.0000
    125 H         135.8894  175.4259  218.6576 H         9        0    0.0000
    126 C         136.4796  173.5409  219.5266 C.3      10        0    0.0000
    127 C         136.7799  172.4824  218.4557 C.3      10        0    0.0000
    128 H         136.1118  173.0242  220.4223 H        10        0    0.0000
    129 H         137.3889  174.0760  219.8246 H        10        0    0.0000
    130 H         135.9068  171.8223  218.3753 H        10        0    0.0000
    131 H         136.9180  172.9409  217.4695 H        10        0    0.0000
    132 C         138.0202  168.7205  216.2737 C.3      11        0    0.0000
    133 C         137.2829  169.8251  217.0179 C.3      11        0    0.0000
    134 C         138.4222  170.6280  217.6540 C.3      11        0    0.0000
    135 C         138.0092  171.5684  218.7904 C.3      11        0    0.0000
    136 C         139.5015  169.5875  218.0117 C.3      11        0    0.0000
    137 C         139.0989  168.2949  217.2752 C.3      11        0    0.0000
    138 C         140.2565  167.4813  216.6884 C.3      11        0    0.0000
    139 H         137.3558  167.8924  216.0082 H        11        0    0.0000
    140 H         138.4510  169.1209  215.3493 H        11        0    0.0000
    141 H         136.6750  170.4367  216.3440 H        11        0    0.0000
    142 H         136.6188  169.3850  217.7700 H        11        0    0.0000
    143 H         138.8461  171.2631  216.8614 H        11        0    0.0000
    144 H         137.7733  170.9727  219.6801 H        11        0    0.0000
    145 H         138.8607  172.2064  219.0551 H        11        0    0.0000
    146 H         139.5639  169.3915  219.0876 H        11        0    0.0000
    147 H         140.4853  169.9615  217.7084 H        11        0    0.0000
    148 H         138.6073  167.6482  218.0177 H        11        0    0.0000
    149 H         141.1917  168.0358  216.8302 H        11        0    0.0000
    150 H         140.3572  166.5449  217.2499 H        11        0    0.0000
    151 C         136.3656  167.5344  214.8088 C.3      12        0    0.0000
    152 C         137.6181  167.4130  215.6808 C.3      12        0    0.0000
    153 C         138.6749  166.7075  214.8208 C.3      12        0    0.0000
    154 C         140.0993  167.1432  215.1755 C.3      12        0    0.0000
    155 C         138.2415  167.0447  213.3903 C.3      12        0    0.0000
    156 C         136.7178  166.8971  213.4582 C.3      12        0    0.0000
    157 C         135.9616  167.5440  212.2945 C.3      12        0    0.0000
    158 H         135.5077  167.0319  215.2684 H        12        0    0.0000
    159 H         136.1003  168.5924  214.6962 H        12        0    0.0000
    160 H         137.4150  166.8471  216.5963 H        12        0    0.0000
    161 H         137.9500  168.4132  215.9841 H        12        0    0.0000
    162 H         138.5715  165.6231  214.9723 H        12        0    0.0000
    163 H         140.3621  168.0325  214.5903 H        12        0    0.0000
    164 H         140.8160  166.3606  214.9001 H        12        0    0.0000
    165 H         138.6860  166.3642  212.6572 H        12        0    0.0000
    166 H         138.5254  168.0709  213.1253 H        12        0    0.0000
    167 H         136.4711  165.8266  213.5099 H        12        0    0.0000
    168 H         136.5844  168.3074  211.8138 H        12        0    0.0000
    169 H         135.0735  168.0581  212.6812 H        12        0    0.0000
    170 C         135.5076  166.5039  211.2338 C.3      13        0    0.0000
    171 C         134.1268  166.7930  210.6278 C.3      13        0    0.0000
    172 H         136.2478  166.5336  210.4240 H        13        0    0.0000
    173 H         135.5521  165.4958  211.6623 H        13        0    0.0000
    174 H         133.4201  167.1377  211.3918 H        13        0    0.0000
    175 H         134.2361  167.6143  209.9080 H        13        0    0.0000
    176 C         135.8941  164.1389  207.4569 C.3      14        0    0.0000
    177 C         135.7014  165.0999  208.6290 C.3      14        0    0.0000
    178 C         134.5615  164.5253  209.4877 C.3      14        0    0.0000
    179 C         133.5091  165.5835  209.8440 C.3      14        0    0.0000
    180 C         134.0119  163.3464  208.6699 C.3      14        0    0.0000
    181 C         135.2123  162.8307  207.8661 C.3      14        0    0.0000
    182 C         136.1611  161.9184  208.6648 C.3      14        0    0.0000
    183 H         135.3872  164.5496  206.5743 H        14        0    0.0000
    184 H         136.9496  164.0154  207.1952 H        14        0    0.0000
    185 H         135.4917  166.1111  208.2633 H        14        0    0.0000
    186 H         136.6188  165.1575  209.2266 H        14        0    0.0000
    187 H         135.0028  164.1330  210.4149 H        14        0    0.0000
    188 H         132.7022  165.1345  210.4346 H        14        0    0.0000
    189 H         133.0526  165.9647  208.9227 H        14        0    0.0000
    190 H         133.5603  162.5799  209.3072 H        14        0    0.0000
    191 H         133.2368  163.6938  207.9743 H        14        0    0.0000
    192 H         134.8673  162.2980  206.9707 H        14        0    0.0000
    193 H         136.2531  162.2529  209.7037 H        14        0    0.0000
    194 H         137.1659  161.9723  208.2284 H        14        0    0.0000
    195 C         135.7039  160.4325  208.6363 C.3      15        0    0.0000
    196 C         136.7415  159.4719  208.0378 C.3      15        0    0.0000
    197 H         135.5261  160.1356  209.6778 H        15        0    0.0000
    198 H         134.7408  160.3521  208.1187 H        15        0    0.0000
    199 H         137.7623  159.8409  208.1920 H        15        0    0.0000
    200 H         136.6692  158.5163  208.5727 H        15        0    0.0000
    201 C         134.1270  161.8774  205.9134 C.3      16        0    0.0000
    202 C         135.4148  161.4581  206.6208 C.3      16        0    0.0000
    203 C         136.0842  160.3996  205.7272 C.3      16        0    0.0000
    204 C         136.5171  159.1580  206.5180 C.3      16        0    0.0000
    205 C         135.0546  160.1115  204.6238 C.3      16        0    0.0000
    206 C         134.2760  161.4229  204.4592 C.3      16        0    0.0000
    207 C         134.9954  162.4802  203.6019 C.3      16        0    0.0000
    208 H         133.2818  161.3487  206.3723 H        16        0    0.0000
    209 H         133.9316  162.9495  206.0158 H        16        0    0.0000
    210 H         135.1942  161.0880  207.6281 H        16        0    0.0000
    211 H         136.0831  162.3199  206.7336 H        16        0    0.0000
    212 H         136.9711  160.8585  205.2678 H        16        0    0.0000
    213 H         137.4326  158.7336  206.0897 H        16        0    0.0000
    214 H         135.7416  158.3870  206.4344 H        16        0    0.0000
    215 H         135.5294  159.7746  203.6972 H        16        0    0.0000
    216 H         134.3632  159.3215  204.9448 H        16        0    0.0000
    217 H         133.2853  161.2235  204.0311 H        16        0    0.0000
    218 H         136.0142  162.6582  203.9625 H        16        0    0.0000
    219 H         134.4626  163.4353  203.6846 H        16        0    0.0000
    220 C         132.4764  159.4334  201.2965 C.3      17        0    0.0000
    221 C         133.0447  160.5041  202.2316 C.3      17        0    0.0000
    222 C         134.5246  160.6607  201.8578 C.3      17        0    0.0000
    223 C         135.0385  162.0827  202.0992 C.3      17        0    0.0000
    224 C         134.5641  160.2072  200.3947 C.3      17        0    0.0000
    225 C         133.6365  158.9876  200.3968 C.3      17        0    0.0000
    226 C         133.1609  158.5454  199.0101 C.3      17        0    0.0000
    227 H         132.0678  158.5869  201.8589 H        17        0    0.0000
    228 H         131.6545  159.8604  200.7095 H        17        0    0.0000
    229 H         132.9334  160.2173  203.2828 H        17        0    0.0000
    230 H         132.4938  161.4417  202.0905 H        17        0    0.0000
    231 H         135.1075  159.9496  202.4613 H        17        0    0.0000
    232 H         134.4220  162.7914  201.5332 H        17        0    0.0000
    233 H         136.0634  162.1855  201.7238 H        17        0    0.0000
    234 H         135.5783  159.9491  200.0738 H        17        0    0.0000
    235 H         134.1807  160.9913  199.7298 H        17        0    0.0000
    236 H         134.1543  158.1539  200.8932 H        17        0    0.0000
    237 H         132.1516  158.9262  198.8149 H        17        0    0.0000
    238 H         133.0969  157.4510  198.9814 H        17        0    0.0000
    239 C         137.3553  158.9014  199.6905 C.3      18        0    0.0000
    240 C         135.8426  159.1093  199.7962 C.3      18        0    0.0000
    241 C         135.3808  159.6779  198.4425 C.3      18        0    0.0000
    242 C         134.1179  159.0140  197.8799 C.3      18        0    0.0000
    243 C         136.5921  159.5021  197.5211 C.3      18        0    0.0000
    244 C         137.8051  159.6691  198.4426 C.3      18        0    0.0000
    245 C         138.1286  161.1483  198.7258 C.3      18        0    0.0000
    246 H         137.8731  159.2040  200.6056 H        18        0    0.0000
    247 H         137.5556  157.8319  199.5464 H        18        0    0.0000
    248 H         135.3511  158.1638  200.0507 H        18        0    0.0000
    249 H         135.6104  159.8208  200.5973 H        18        0    0.0000
    250 H         135.1986  160.7552  198.5649 H        18        0    0.0000
    251 H         133.5826  159.7308  197.2456 H        18        0    0.0000
    252 H         134.3841  158.1629  197.2426 H        18        0    0.0000
    253 H         136.5852  160.2186  196.6933 H        18        0    0.0000
    254 H         136.5987  158.4939  197.0869 H        18        0    0.0000
    255 H         138.6798  159.1839  197.9911 H        18        0    0.0000
    256 H         137.6292  161.4953  199.6371 H        18        0    0.0000
    257 H         137.7537  161.7670  197.9018 H        18        0    0.0000
    258 C         139.8427  157.8814  200.0495 C.3      19        0    0.0000
    259 C         139.3947  159.3118  200.3598 C.3      19        0    0.0000
    260 C         140.3558  160.2475  199.6050 C.3      19        0    0.0000
    261 C         139.6606  161.3901  198.8545 C.3      19        0    0.0000
    262 C         141.1327  159.3199  198.6652 C.3      19        0    0.0000
    263 C         141.2402  157.9969  199.4312 C.3      19        0    0.0000
    264 C         142.3672  158.0159  200.4813 C.3      19        0    0.0000
    265 H         139.8035  157.2410  200.9357 H        19        0    0.0000
    266 H         139.1567  157.4491  199.3097 H        19        0    0.0000
    267 H         138.3483  159.4490  200.0654 H        19        0    0.0000
    268 H         139.4561  159.5055  201.4370 H        19        0    0.0000
    269 H         141.0655  160.6708  200.3301 H        19        0    0.0000
    270 H         139.8202  162.3302  199.3958 H        19        0    0.0000
    271 H         140.1009  161.5181  197.8589 H        19        0    0.0000
    272 H         142.1089  159.7348  198.3941 H        19        0    0.0000
    273 H         140.5708  159.1599  197.7359 H        19        0    0.0000
    274 H         141.4135  157.1756  198.7243 H        19        0    0.0000
    275 H         142.0494  157.5322  201.4116 H        19        0    0.0000
    276 H         142.6147  159.0546  200.7306 H        19        0    0.0000
    277 C         143.6579  157.3234  199.9558 C.3      20        0    0.0000
    278 C         144.6849  158.2927  199.3531 C.3      20        0    0.0000
    279 H         144.1234  156.8260  200.8164 H        20        0    0.0000
    280 H         143.3899  156.5333  199.2445 H        20        0    0.0000
    281 H         144.9077  159.1164  200.0415 H        20        0    0.0000
    282 H         145.6243  157.7448  199.2051 H        20        0    0.0000
    283 C         143.6380  157.6155  194.5639 C.3      21        0    0.0000
    284 C         144.5961  157.6174  195.7541 C.3      21        0    0.0000
    285 C         143.7316  157.7831  197.0159 C.3      21        0    0.0000
    286 C         144.2722  158.8696  197.9547 C.3      21        0    0.0000
    287 C         142.3162  158.0606  196.4865 C.3      21        0    0.0000
    288 C         142.2487  157.3295  195.1397 C.3      21        0    0.0000
    289 C         141.9792  155.8180  195.2554 C.3      21        0    0.0000
    290 H         143.6405  158.6124  194.1048 H        21        0    0.0000
    291 H         143.9432  156.9030  193.7910 H        21        0    0.0000
    292 H         145.3432  158.4108  195.6417 H        21        0    0.0000
    293 H         145.1407  156.6671  195.8037 H        21        0    0.0000
    294 H         143.7244  156.8214  197.5481 H        21        0    0.0000
    295 H         143.5276  159.6629  198.0880 H        21        0    0.0000
    296 H         145.1537  159.3363  197.4988 H        21        0    0.0000
    297 H         141.5438  157.7364  197.1907 H        21        0    0.0000
    298 H         142.1767  159.1365  196.3182 H        21        0    0.0000
    299 H         141.4824  157.7853  194.4998 H        21        0    0.0000
    300 H         142.2698  155.4368  196.2402 H        21        0    0.0000
    301 H         142.5931  155.2846  194.5195 H        21        0    0.0000
    302 C         138.1822  154.8943  192.1852 C.3      22        0    0.0000
    303 C         139.0918  155.8996  192.8898 C.3      22        0    0.0000
    304 C         140.2415  155.0911  193.5155 C.3      22        0    0.0000
    305 C         140.4890  155.4680  194.9821 C.3      22        0    0.0000
    306 C         139.8459  153.6214  193.3049 C.3      22        0    0.0000
    307 C         139.0115  153.6184  192.0178 C.3      22        0    0.0000
    308 C         139.8467  153.6464  190.7247 C.3      22        0    0.0000
    309 H         137.3201  154.6826  192.8307 H        22        0    0.0000
    310 H         137.7906  155.2850  191.2408 H        22        0    0.0000
    311 H         138.5241  156.4757  193.6288 H        22        0    0.0000
    312 H         139.4975  156.6159  192.1657 H        22        0    0.0000
    313 H         141.1522  155.2955  192.9348 H        22        0    0.0000
    314 H         140.1742  154.6524  195.6433 H        22        0    0.0000
    315 H         139.8755  156.3396  195.2404 H        22        0    0.0000
    316 H         140.7198  152.9648  193.2521 H        22        0    0.0000
    317 H         139.2221  153.2719  194.1379 H        22        0    0.0000
    318 H         138.3468  152.7453  192.0000 H        22        0    0.0000
    319 H         140.8461  154.0563  190.9058 H        22        0    0.0000
    320 H         139.3633  154.3097  189.9972 H        22        0    0.0000
    321 C         140.2299  151.2452  186.5134 C.3      23        0    0.0000
    322 C         140.6663  150.9550  187.9515 C.3      23        0    0.0000
    323 C         140.6380  152.2997  188.6999 C.3      23        0    0.0000
    324 C         139.9725  152.2369  190.0802 C.3      23        0    0.0000
    325 C         139.9122  153.2530  187.7451 C.3      23        0    0.0000
    326 C         140.3013  152.7668  186.3449 C.3      23        0    0.0000
    327 C         141.6951  153.2638  185.9167 C.3      23        0    0.0000
    328 H         140.8310  150.6916  185.7857 H        23        0    0.0000
    329 H         139.1900  150.9177  186.3870 H        23        0    0.0000
    330 H         140.0057  150.2046  188.3995 H        23        0    0.0000
    331 H         141.6819  150.5424  187.9661 H        23        0    0.0000
    332 H         141.6729  152.6530  188.8136 H        23        0    0.0000
    333 H         138.9678  151.8092  189.9798 H        23        0    0.0000
    334 H         140.5352  151.5731  190.7467 H        23        0    0.0000
    335 H         140.1849  154.2982  187.9233 H        23        0    0.0000
    336 H         138.8253  153.1675  187.8731 H        23        0    0.0000
    337 H         139.5532  153.1053  185.6168 H        23        0    0.0000
    338 H         142.2574  152.4739  185.4064 H        23        0    0.0000
    339 H         142.2719  153.5412  186.8069 H        23        0    0.0000
    340 C         138.7104  156.1793  186.8039 C.3      24        0    0.0000
    341 C         140.0325  155.4253  186.8354 C.3      24        0    0.0000
    342 C         140.5065  155.5060  185.3806 C.3      24        0    0.0000
    343 C         141.6042  154.5112  184.9907 C.3      24        0    0.0000
    344 C         139.2219  155.4446  184.5312 C.3      24        0    0.0000
    345 C         138.0571  155.6698  185.5150 C.3      24        0    0.0000
    346 C         136.8994  156.5207  184.9839 C.3      24        0    0.0000
    347 H         138.0984  155.9684  187.6863 H        24        0    0.0000
    348 H         138.9002  157.2578  186.7713 H        24        0    0.0000
    349 H         140.7473  155.8823  187.5267 H        24        0    0.0000
    350 H         139.8616  154.3919  187.1565 H        24        0    0.0000
    351 H         140.9313  156.5112  185.2388 H        24        0    0.0000
    352 H         141.4327  154.1742  183.9615 H        24        0    0.0000
    353 H         142.5725  155.0255  184.9965 H        24        0    0.0000
    354 H         139.0922  154.4822  184.0245 H        24        0    0.0000
    355 H         139.2671  156.2045  183.7437 H        24        0    0.0000
    356 H         137.6378  154.6777  185.7406 H        24        0    0.0000
    357 H         135.9502  156.0596  185.2819 H        24        0    0.0000
    358 H         136.9328  157.5082  185.4593 H        24        0    0.0000
    359 C         133.8054  158.6524  182.4982 C.3      25        0    0.0000
    360 C         134.9423  158.3267  183.4548 C.3      25        0    0.0000
    361 C         135.5089  157.0254  182.8832 C.3      25        0    0.0000
    362 C         136.9004  156.7095  183.4371 C.3      25        0    0.0000
    363 C         135.4561  157.2413  181.3596 C.3      25        0    0.0000
    364 C         134.3960  158.3357  181.1184 C.3      25        0    0.0000
    365 C         133.3692  158.0270  180.0214 C.3      25        0    0.0000
    366 H         133.4910  159.6978  182.5781 H        25        0    0.0000
    367 H         132.9394  158.0235  182.7312 H        25        0    0.0000
    368 H         135.6930  159.1262  183.4386 H        25        0    0.0000
    369 H         134.5902  158.2080  184.4841 H        25        0    0.0000
    370 H         134.8186  156.2081  183.1380 H        25        0    0.0000
    371 H         137.2997  155.8050  182.9632 H        25        0    0.0000
    372 H         137.5858  157.5267  183.1828 H        25        0    0.0000
    373 H         136.4225  157.5895  180.9745 H        25        0    0.0000
    374 H         135.2291  156.3023  180.8439 H        25        0    0.0000
    375 H         134.9410  159.2328  180.7887 H        25        0    0.0000
    376 H         133.2328  156.9412  179.9537 H        25        0    0.0000
    377 H         133.7719  158.3538  179.0552 H        25        0    0.0000
    378 C         129.1305  156.9514  178.6208 C.3      26        0    0.0000
    379 C         130.6418  156.9692  178.8629 C.3      26        0    0.0000
    380 C         131.0403  158.4442  179.0492 C.3      26        0    0.0000
    381 C         131.9810  158.6962  180.2341 C.3      26        0    0.0000
    382 C         129.7070  159.1846  179.1950 C.3      26        0    0.0000
    383 C         128.7309  158.3987  178.3132 C.3      26        0    0.0000
    384 C         128.8651  158.7598  176.8217 C.3      26        0    0.0000
    385 H         128.8518  156.2403  177.8373 H        26        0    0.0000
    386 H         128.6290  156.6278  179.5419 H        26        0    0.0000
    387 H         130.8896  156.3484  179.7310 H        26        0    0.0000
    388 H         131.1712  156.5468  178.0009 H        26        0    0.0000
    389 H         131.5236  158.7903  178.1244 H        26        0    0.0000
    390 H         132.1300  159.7757  180.3562 H        26        0    0.0000
    391 H         131.5314  158.3304  181.1644 H        26        0    0.0000
    392 H         129.7888  160.2373  178.9053 H        26        0    0.0000
    393 H         129.3647  159.1534  180.2375 H        26        0    0.0000
    394 H         127.7018  158.5885  178.6437 H        26        0    0.0000
    395 H         129.5656  158.0880  176.3133 H        26        0    0.0000
    396 H         129.2714  159.7739  176.7279 H        26        0    0.0000
    397 C         127.4913  158.7193  176.0916 C.3      27        0    0.0000
    398 C         127.3663  159.7281  174.9409 C.3      27        0    0.0000
    399 H         127.3847  157.7104  175.6730 H        27        0    0.0000
    400 H         126.6818  158.8433  176.8205 H        27        0    0.0000
    401 H         127.8040  160.6965  175.2102 H        27        0    0.0000
    402 H         127.9458  159.3476  174.0901 H        27        0    0.0000
    403 C         125.1632  163.6488  174.2849 C.3      28        0    0.0000
    404 C         126.1666  162.5126  174.4105 C.3      28        0    0.0000
    405 C         125.2955  161.3037  174.7747 C.3      28        0    0.0000
    406 C         125.8977  159.9352  174.4319 C.3      28        0    0.0000
    407 C         123.9090  161.5889  174.1617 C.3      28        0    0.0000
    408 C         123.9967  162.9953  173.5411 C.3      28        0    0.0000
    409 C         122.7121  163.8212  173.6429 C.3      28        0    0.0000
    410 H         124.8548  163.9947  175.2790 H        28        0    0.0000
    411 H         125.5767  164.5019  173.7383 H        28        0    0.0000
    412 H         126.6856  162.3753  173.4557 H        28        0    0.0000
    413 H         126.9221  162.7174  175.1756 H        28        0    0.0000
    414 H         125.1647  161.3194  175.8670 H        28        0    0.0000
    415 H         125.2638  159.1500  174.8608 H        28        0    0.0000
    416 H         125.8766  159.7967  173.3444 H        28        0    0.0000
    417 H         123.1532  161.5523  174.9561 H        28        0    0.0000
    418 H         123.6125  160.8517  173.4081 H        28        0    0.0000
    419 H         124.2800  162.8866  172.4840 H        28        0    0.0000
    420 H         122.5734  164.1800  174.6696 H        28        0    0.0000
    421 H         122.8021  164.7109  173.0083 H        28        0    0.0000
    422 C         118.4341  165.3306  173.2225 C.3      29        0    0.0000
    423 C         119.8090  164.9473  173.7518 C.3      29        0    0.0000
    424 C         120.2818  163.8946  172.7439 C.3      29        0    0.0000
    425 C         121.4528  163.0217  173.2055 C.3      29        0    0.0000
    426 C         119.0091  163.1323  172.3260 C.3      29        0    0.0000
    427 C         117.8264  163.9775  172.8383 C.3      29        0    0.0000
    428 C         116.6103  164.0430  171.9093 C.3      29        0    0.0000
    429 H         117.8359  165.8506  173.9772 H        29        0    0.0000
    430 H         118.5423  165.9942  172.3576 H        29        0    0.0000
    431 H         120.4844  165.8072  173.7956 H        29        0    0.0000
    432 H         119.7149  164.5366  174.7631 H        29        0    0.0000
    433 H         120.6303  164.4394  171.8535 H        29        0    0.0000
    434 H         121.1241  162.3959  174.0437 H        29        0    0.0000
    435 H         121.7330  162.3396  172.3940 H        29        0    0.0000
    436 H         118.9542  162.1269  172.7571 H        29        0    0.0000
    437 H         119.0004  163.0029  171.2384 H        29        0    0.0000
    438 H         117.4819  163.5062  173.7711 H        29        0    0.0000
    439 H         116.8895  163.6473  170.9256 H        29        0    0.0000
    440 H         115.8242  163.3867  172.3012 H        29        0    0.0000
    441 C         112.4486  165.0586  170.5864 C.3      30        0    0.0000
    442 C         113.6707  164.5858  171.3586 C.3      30        0    0.0000
    443 C         114.7845  165.4882  170.8236 C.3      30        0    0.0000
    444 C         116.0218  165.4739  171.7247 C.3      30        0    0.0000
    445 C         114.1058  166.8632  170.6835 C.3      30        0    0.0000
    446 C         112.5913  166.5859  170.5897 C.3      30        0    0.0000
    447 C         111.8576  167.3149  169.4569 C.3      30        0    0.0000
    448 H         111.5161  164.7341  171.0588 H        30        0    0.0000
    449 H         112.4728  164.6436  169.5730 H        30        0    0.0000
    450 H         113.5217  164.7365  172.4348 H        30        0    0.0000
    451 H         113.8789  163.5253  171.1867 H        30        0    0.0000
    452 H         115.0590  165.1371  169.8182 H        30        0    0.0000
    453 H         116.7962  166.1328  171.3143 H        30        0    0.0000
    454 H         115.7570  165.8754  172.7101 H        30        0    0.0000
    455 H         114.2998  167.4927  171.5608 H        30        0    0.0000
    456 H         114.4986  167.4013  169.8144 H        30        0    0.0000
    457 H         112.1475  166.9479  171.5292 H        30        0    0.0000
    458 H         111.8791  166.6903  168.5560 H        30        0    0.0000
    459 H         112.4027  168.2349  169.2142 H        30        0    0.0000
    460 C         108.4747  167.5201  166.5094 C.3      31        0    0.0000
    461 C         109.7540  167.2820  167.2969 C.3      31        0    0.0000
    462 C         109.5577  168.1251  168.5632 C.3      31        0    0.0000
    463 C         110.3806  167.6818  169.7796 C.3      31        0    0.0000
    464 C         108.0328  168.1949  168.7856 C.3      31        0    0.0000
    465 C         107.3923  167.4669  167.5896 C.3      31        0    0.0000
    466 C         106.0681  168.0661  167.1098 C.3      31        0    0.0000
    467 H         108.5038  168.5044  166.0264 H        31        0    0.0000
    468 H         108.3236  166.7624  165.7345 H        31        0    0.0000
    469 H         109.8517  166.2145  167.5223 H        31        0    0.0000
    470 H         110.6423  167.5882  166.7355 H        31        0    0.0000
    471 H         109.8866  169.1471  168.3228 H        31        0    0.0000
    472 H         110.3736  168.4854  170.5257 H        31        0    0.0000
    473 H         109.8939  166.8167  170.2453 H        31        0    0.0000
    474 H         107.7251  169.2474  168.8205 H        31        0    0.0000
    475 H         107.7151  167.7405  169.7300 H        31        0    0.0000
    476 H         107.2381  166.4149  167.8709 H        31        0    0.0000
    477 H         105.4499  168.3537  167.9685 H        31        0    0.0000
    478 H         106.2694  168.9845  166.5455 H        31        0    0.0000
    479 C         105.2651  167.0902  166.2047 C.3      32        0    0.0000
    480 C         105.1173  167.5653  164.7521 C.3      32        0    0.0000
    481 H         105.8143  166.1400  166.1979 H        32        0    0.0000
    482 H         104.2885  166.8845  166.6584 H        32        0    0.0000
    483 H         104.2523  168.2288  164.6355 H        32        0    0.0000
    484 H         106.0045  168.1585  164.4960 H        32        0    0.0000
    485 C         101.7230  166.1190  162.1475 C.3      33        0    0.0000
    486 C         102.6329  166.9575  163.0440 C.3      33        0    0.0000
    487 C         104.0724  166.7220  162.5548 C.3      33        0    0.0000
    488 C         105.0343  166.4002  163.7061 C.3      33        0    0.0000
    489 C         103.9518  165.6033  161.5085 C.3      33        0    0.0000
    490 C         102.5514  165.7759  160.9067 C.3      33        0    0.0000
    491 C         102.4568  166.8772  159.8350 C.3      33        0    0.0000
    492 H         101.4614  165.1927  162.6747 H        33        0    0.0000
    493 H         100.7858  166.6344  161.9153 H        33        0    0.0000
    494 H         102.4897  166.6849  164.0953 H        33        0    0.0000
    495 H         102.3820  168.0207  162.9500 H        33        0    0.0000
    496 H         104.4113  167.6382  162.0508 H        33        0    0.0000
    497 H         106.0354  166.1822  163.3163 H        33        0    0.0000
    498 H         104.6916  165.4952  164.2220 H        33        0    0.0000
    499 H         104.7497  165.6526  160.7611 H        33        0    0.0000
    500 H         104.0157  164.6202  161.9929 H        33        0    0.0000
    501 H         102.2031  164.8262  160.4809 H        33        0    0.0000
    502 H         103.3618  166.9110  159.2189 H        33        0    0.0000
    503 H         102.3765  167.8539  160.3274 H        33        0    0.0000
    504 C          98.9257  169.6117  159.6329 C.3      34        0    0.0000
    505 C         100.3090  168.9846  159.5517 C.3      34        0    0.0000
    506 C         100.0011  167.4922  159.4127 C.3      34        0    0.0000
    507 C         101.2124  166.6964  158.9203 C.3      34        0    0.0000
    508 C          98.7817  167.4560  158.4733 C.3      34        0    0.0000
    509 C          98.1226  168.8472  158.5729 C.3      34        0    0.0000
    510 C          96.6027  168.8420  158.7800 C.3      34        0    0.0000
    511 H          98.9519  170.6868  159.4292 H        34        0    0.0000
    512 H          98.5188  169.4715  160.6402 H        34        0    0.0000
    513 H         100.8458  169.3615  158.6725 H        34        0    0.0000
    514 H         100.9102  169.2022  160.4397 H        34        0    0.0000
    515 H          99.6880  167.1123  160.3961 H        34        0    0.0000
    516 H         100.9637  165.6305  158.8553 H        34        0    0.0000
    517 H         101.4713  167.0215  157.9056 H        34        0    0.0000
    518 H          99.0864  167.2791  157.4343 H        34        0    0.0000
    519 H          98.1057  166.6397  158.7487 H        34        0    0.0000
    520 H          98.3021  169.3488  157.6103 H        34        0    0.0000
    521 H          96.3127  169.7470  159.3269 H        34        0    0.0000
    522 H          96.3333  167.9907  159.4164 H        34        0    0.0000
    523 C          92.5815  170.1144  158.9478 C.3      35        0    0.0000
    524 C          93.9320  169.4092  159.0985 C.3      35        0    0.0000
    525 C          94.2668  168.8214  157.7213 C.3      35        0    0.0000
    526 C          95.7753  168.7620  157.4650 C.3      35        0    0.0000
    527 C          93.4906  169.7260  156.7584 C.3      35        0    0.0000
    528 C          92.1565  169.9232  157.4860 C.3      35        0    0.0000
    529 C          91.3135  171.0915  156.9673 C.3      35        0    0.0000
    530 H          91.8341  169.6980  159.6318 H        35        0    0.0000
    531 H          92.6943  171.1762  159.1973 H        35        0    0.0000
    532 H          93.8907  168.6241  159.8611 H        35        0    0.0000
    533 H          94.6888  170.1348  159.4198 H        35        0    0.0000
    534 H          93.8429  167.8079  157.6691 H        35        0    0.0000
    535 H          96.0658  169.5989  156.8187 H        35        0    0.0000
    536 H          96.0336  167.8426  156.9267 H        35        0    0.0000
    537 H          93.3564  169.2594  155.7774 H        35        0    0.0000
    538 H          94.0066  170.6840  156.6174 H        35        0    0.0000
    539 H          91.5780  168.9904  157.4165 H        35        0    0.0000
    540 H          91.9595  171.8621  156.5306 H        35        0    0.0000
    541 H          90.7873  171.5593  157.8080 H        35        0    0.0000
    542 C          88.8377  174.0957  155.2240 C.3      36        0    0.0000
    543 C          90.0257  173.1884  155.5121 C.3      36        0    0.0000
    544 C          89.4397  171.7861  155.3178 C.3      36        0    0.0000
    545 C          90.2626  170.6410  155.9159 C.3      36        0    0.0000
    546 C          87.9820  171.8838  155.8088 C.3      36        0    0.0000
    547 C          87.6856  173.3900  155.9467 C.3      36        0    0.0000
    548 C          86.2793  173.8275  155.5258 C.3      36        0    0.0000
    549 H          88.9982  175.1110  155.5995 H        36        0    0.0000
    550 H          88.6712  174.1551  154.1428 H        36        0    0.0000
    551 H          90.8621  173.3822  154.8336 H        36        0    0.0000
    552 H          90.3750  173.3506  156.5378 H        36        0    0.0000
    553 H          89.3962  171.6061  154.2330 H        36        0    0.0000
    554 H          89.5835  169.9185  156.3839 H        36        0    0.0000
    555 H          90.7787  170.1100  155.1072 H        36        0    0.0000
    556 H          87.8237  171.3898  156.7735 H        36        0    0.0000
    557 H          87.3205  171.3834  155.0934 H        36        0    0.0000
    558 H          87.7821  173.6344  157.0153 H        36        0    0.0000
    559 H          85.6076  173.7523  156.3892 H        36        0    0.0000
    560 H          86.3043  174.8849  155.2372 H        36        0    0.0000
    561 C          82.0771  173.0866  155.2476 C.3      37        0    0.0000
    562 C          83.1912  172.3318  154.5181 C.3      37        0    0.0000
    563 C          84.2188  173.3874  154.0718 C.3      37        0    0.0000
    564 C          85.6769  173.0017  154.3496 C.3      37        0    0.0000
    565 C          83.8017  174.6629  154.8109 C.3      37        0    0.0000
    566 C          82.2755  174.5687  154.9118 C.3      37        0    0.0000
    567 C          81.5732  174.9934  153.6081 C.3      37        0    0.0000
    568 H          81.0863  172.7032  154.9858 H        37        0    0.0000
    569 H          82.2023  172.9428  156.3285 H        37        0    0.0000
    570 H          83.6221  171.5704  155.1775 H        37        0    0.0000
    571 H          82.7884  171.8109  153.6416 H        37        0    0.0000
    572 H          84.0899  173.5600  152.9937 H        37        0    0.0000
    573 H          85.7280  171.9377  154.6095 H        37        0    0.0000
    574 H          86.2873  173.1385  153.4495 H        37        0    0.0000
    575 H          84.1386  175.5662  154.2922 H        37        0    0.0000
    576 H          84.2347  174.6788  155.8195 H        37        0    0.0000
    577 H          81.9219  175.1976  155.7387 H        37        0    0.0000
    578 H          80.5418  174.6252  153.5762 H        37        0    0.0000
    579 H          82.0962  174.5506  152.7521 H        37        0    0.0000
    580 C          79.9017  176.4806  150.0299 C.3      38        0    0.0000
    581 C          81.0941  176.1457  150.9128 C.3      38        0    0.0000
    582 C          80.8841  177.0289  152.1492 C.3      38        0    0.0000
    583 C          81.5737  176.5393  153.4289 C.3      38        0    0.0000
    584 C          79.3597  177.2390  152.2577 C.3      38        0    0.0000
    585 C          78.7440  176.5464  151.0281 C.3      38        0    0.0000
    586 C          77.5174  177.2513  150.4437 C.3      38        0    0.0000
    587 H          80.0545  177.4482  149.5365 H        38        0    0.0000
    588 H          79.7390  175.7236  149.2567 H        38        0    0.0000
    589 H          81.0784  175.0786  151.1598 H        38        0    0.0000
    590 H          82.0446  176.3597  150.4141 H        38        0    0.0000
    591 H          81.3206  178.0123  151.9193 H        38        0    0.0000
    592 H          82.6119  176.8923  153.4310 H        38        0    0.0000
    593 H          81.0847  176.9970  154.2970 H        38        0    0.0000
    594 H          79.1468  178.3152  152.2550 H        38        0    0.0000
    595 H          78.9350  176.8343  153.1824 H        38        0    0.0000
    596 H          78.4754  175.5184  151.3121 H        38        0    0.0000
    597 H          77.8227  178.1531  149.8999 H        38        0    0.0000
    598 H          77.0344  176.5917  149.7130 H        38        0    0.0000
    599 C          73.4490  179.4645  150.1392 C.3      39        0    0.0000
    600 C          74.9515  179.2212  150.1627 C.3      39        0    0.0000
    601 C          75.0766  177.9353  150.9864 C.3      39        0    0.0000
    602 C          76.4766  177.6375  151.5319 C.3      39        0    0.0000
    603 C          73.9563  178.0188  152.0416 C.3      39        0    0.0000
    604 C          73.0313  179.1629  151.5822 C.3      39        0    0.0000
    605 C          71.5332  178.9278  151.7976 C.3      39        0    0.0000
    606 H          73.2056  180.4906  149.8466 H        39        0    0.0000
    607 H          72.9752  178.7848  149.4224 H        39        0    0.0000
    608 H          75.3627  179.1057  149.1551 H        39        0    0.0000
    609 H          75.4560  180.0678  150.6411 H        39        0    0.0000
    610 H          74.8182  177.1011  150.3167 H        39        0    0.0000
    611 H          76.8439  178.5167  152.0744 H        39        0    0.0000
    612 H          76.4109  176.8218  152.2616 H        39        0    0.0000
    613 H          74.3336  178.2345  153.0470 H        39        0    0.0000
    614 H          73.4410  177.0544  152.1055 H        39        0    0.0000
    615 H          73.2985  180.0456  152.1827 H        39        0    0.0000
    616 H          71.0983  179.8101  152.2820 H        39        0    0.0000
    617 H          71.0419  178.8297  150.8222 H        39        0    0.0000
    618 C          67.7643  179.0754  152.6762 C.3      40        0    0.0000
    619 C          69.0951  178.9511  153.4222 C.3      40        0    0.0000
    620 C          69.7080  177.6015  153.0072 C.3      40        0    0.0000
    621 C          71.1990  177.6702  152.6549 C.3      40        0    0.0000
    622 C          68.8498  177.1398  151.8250 C.3      40        0    0.0000
    623 C          67.4482  177.6779  152.1323 C.3      40        0    0.0000
    624 C          66.6873  176.7942  153.1389 C.3      40        0    0.0000
    625 H          66.9772  179.4896  153.3135 H        40        0    0.0000
    626 H          67.8945  179.7679  151.8347 H        40        0    0.0000
    627 H          69.7403  179.8034  153.1823 H        40        0    0.0000
    628 H          68.9279  178.9664  154.5056 H        40        0    0.0000
    629 H          69.5642  176.8891  153.8321 H        40        0    0.0000
    630 H          71.7888  177.7119  153.5784 H        40        0    0.0000
    631 H          71.5085  176.7643  152.1210 H        40        0    0.0000
    632 H          68.8704  176.0519  151.7035 H        40        0    0.0000
    633 H          69.2157  177.5847  150.8906 H        40        0    0.0000
    634 H          66.8706  177.7524  151.2022 H        40        0    0.0000
    635 H          67.1796  176.7955  154.1178 H        40        0    0.0000
    636 H          66.6862  175.7567  152.7842 H        40        0    0.0000
    637 C          64.8171  179.4755  150.3615 C.3      41        0    0.0000
    638 C          65.7822  178.8806  151.3899 C.3      41        0    0.0000
    639 C          64.9611  178.6222  152.6660 C.3      41        0    0.0000
    640 C          65.2088  177.2505  153.3057 C.3      41        0    0.0000
    641 C          63.5049  178.8069  152.2271 C.3      41        0    0.0000
    642 C          63.5632  179.8865  151.1411 C.3      41        0    0.0000
    643 C          63.6547  181.3072  151.7294 C.3      41        0    0.0000
    644 H          65.2753  180.2943  149.7988 H        41        0    0.0000
    645 H          64.5501  178.6965  149.6358 H        41        0    0.0000
    646 H          66.2433  177.9713  150.9890 H        41        0    0.0000
    647 H          66.5925  179.5867  151.6056 H        41        0    0.0000
    648 H          65.2002  179.4093  153.3953 H        41        0    0.0000
    649 H          64.9794  177.3025  154.3767 H        41        0    0.0000
    650 H          64.5378  176.4995  152.8731 H        41        0    0.0000
    651 H          62.8558  179.0812  153.0650 H        41        0    0.0000
    652 H          63.1147  177.8756  151.7966 H        41        0    0.0000
    653 H          62.6749  179.8128  150.5009 H        41        0    0.0000
    654 H          63.9388  182.0358  150.9620 H        41        0    0.0000
    655 H          64.4362  181.3332  152.4981 H        41        0    0.0000
    656 C          61.3351  178.2871  151.6531 C.3      42        0    0.0000
    657 C          62.0590  179.2190  152.6237 C.3      42        0    0.0000
    658 C          61.3378  180.5761  152.5528 C.3      42        0    0.0000
    659 C          62.3145  181.7477  152.3865 C.3      42        0    0.0000
    660 C          60.3365  180.4270  151.3970 C.3      42        0    0.0000
    661 C          59.9762  178.9360  151.3777 C.3      42        0    0.0000
    662 C          58.9257  178.5274  152.4264 C.3      42        0    0.0000
    663 H          61.9069  178.2354  150.7178 H        42        0    0.0000
    664 H          61.2585  177.2668  152.0419 H        42        0    0.0000
    665 H          63.1218  179.2869  152.3670 H        42        0    0.0000
    666 H          61.9989  178.8236  153.6446 H        42        0    0.0000
    667 H          60.7760  180.7085  153.4883 H        42        0    0.0000
    668 H          62.5158  182.2165  153.3567 H        42        0    0.0000
    669 H          61.8542  182.5157  151.7533 H        42        0    0.0000
    670 H          59.4656  181.0779  151.5219 H        42        0    0.0000
    671 H          60.8121  180.6936  150.4442 H        42        0    0.0000
    672 H          59.6232  178.6451  150.3801 H        42        0    0.0000
    673 H          59.2198  178.8510  153.4306 H        42        0    0.0000
    674 H          58.8543  177.4333  152.4583 H        42        0    0.0000
    675 C          57.5159  179.0913  152.0913 C.3      43        0    0.0000
    676 C          56.3759  178.0835  152.2964 C.3      43        0    0.0000
    677 H          57.3455  179.9400  152.7661 H        43        0    0.0000
    678 H          57.5124  179.4955  151.0722 H        43        0    0.0000
    679 H          56.4924  177.5358  153.2389 H        43        0    0.0000
    680 H          55.4355  178.6442  152.3736 H        43        0    0.0000
    681 C          59.5409  177.7578  149.4340 C.3      44        0    0.0000
    682 C          58.7343  177.3835  150.6696 C.3      44        0    0.0000
    683 C          57.3452  177.0883  150.0944 C.3      44        0    0.0000
    684 C          56.2020  177.0688  151.1137 C.3      44        0    0.0000
    685 C          57.1736  178.0742  148.9222 C.3      44        0    0.0000
    686 C          58.5752  178.6567  148.6549 C.3      44        0    0.0000
    687 C          58.9280  178.8787  147.1810 C.3      44        0    0.0000
    688 H          60.4683  178.2778  149.6933 H        44        0    0.0000
    689 H          59.8032  176.8527  148.8752 H        44        0    0.0000
    690 H          59.1577  176.5171  151.1872 H        44        0    0.0000
    691 H          58.7197  178.2251  151.3709 H        44        0    0.0000
    692 H          57.3895  176.0801  149.6553 H        44        0    0.0000
    693 H          55.2591  177.2867  150.5983 H        44        0    0.0000
    694 H          56.1083  176.0579  151.5278 H        44        0    0.0000
    695 H          56.4762  178.8879  149.1490 H        44        0    0.0000
    696 H          56.7601  177.5454  148.0567 H        44        0    0.0000
    697 H          58.6029  179.6464  149.1353 H        44        0    0.0000
    698 H          58.3376  178.1909  146.5640 H        44        0    0.0000
    699 H          58.6331  179.8941  146.8909 H        44        0    0.0000
    700 C          61.6034  175.1070  146.5401 C.3      45        0    0.0000
    701 C          60.4948  176.1613  146.4828 C.3      45        0    0.0000
    702 C          60.9729  177.3363  147.3460 C.3      45        0    0.0000
    703 C          60.4371  178.6810  146.8469 C.3      45        0    0.0000
    704 C          62.4987  177.2014  147.3035 C.3      45        0    0.0000
    705 C          62.7051  175.6888  147.4355 C.3      45        0    0.0000
    706 C          64.0994  175.1978  147.0362 C.3      45        0    0.0000
    707 H          61.2323  174.1575  146.9406 H        45        0    0.0000
    708 H          61.9724  174.9099  145.5265 H        45        0    0.0000
    709 H          59.5442  175.7630  146.8534 H        45        0    0.0000
    710 H          60.3352  176.4670  145.4418 H        45        0    0.0000
    711 H          60.6341  177.1634  148.3779 H        45        0    0.0000
    712 H          60.5641  178.7401  145.7593 H        45        0    0.0000
    713 H          61.0173  179.5052  147.2781 H        45        0    0.0000
    714 H          62.9808  177.7525  148.1171 H        45        0    0.0000
    715 H          62.8994  177.5709  146.3512 H        45        0    0.0000
    716 H          62.4932  175.3952  148.4740 H        45        0    0.0000
    717 H          64.0371  174.1991  146.5886 H        45        0    0.0000
    718 H          64.7209  175.1033  147.9347 H        45        0    0.0000
    719 C          66.8851  174.1482  143.6052 C.3      46        0    0.0000
    720 C          65.7974  174.2084  144.6668 C.3      46        0    0.0000
    721 C          66.0290  175.5668  145.3407 C.3      46        0    0.0000
    722 C          64.8055  176.1649  146.0467 C.3      46        0    0.0000
    723 C          66.6748  176.4622  144.2633 C.3      46        0    0.0000
    724 C          66.8800  175.5655  143.0286 C.3      46        0    0.0000
    725 C          68.1465  175.8653  142.2230 C.3      46        0    0.0000
    726 H          67.8522  173.9116  144.0654 H        46        0    0.0000
    727 H          66.6733  173.3910  142.8442 H        46        0    0.0000
    728 H          64.8144  174.1471  144.1876 H        46        0    0.0000
    729 H          65.8750  173.3804  145.3785 H        46        0    0.0000
    730 H          66.7912  175.4134  146.1191 H        46        0    0.0000
    731 H          65.1146  177.0631  146.5944 H        46        0    0.0000
    732 H          64.0804  176.4914  145.2918 H        46        0    0.0000
    733 H          67.6322  176.8416  144.6417 H        46        0    0.0000
    734 H          66.0658  177.3361  144.0095 H        46        0    0.0000
    735 H          65.9989  175.6696  142.3788 H        46        0    0.0000
    736 H          67.9181  175.8797  141.1507 H        46        0    0.0000
    737 H          68.5110  176.8669  142.4805 H        46        0    0.0000
    738 C          70.8986  174.7817  139.0524 C.3      47        0    0.0000
    739 C          69.9198  175.3952  140.0438 C.3      47        0    0.0000
    740 C          70.3195  174.7388  141.3693 C.3      47        0    0.0000
    741 C          69.2812  174.8372  142.4911 C.3      47        0    0.0000
    742 C          70.7625  173.3102  140.9973 C.3      47        0    0.0000
    743 C          70.9225  173.3061  139.4644 C.3      47        0    0.0000
    744 C          72.1031  172.4922  138.9259 C.3      47        0    0.0000
    745 H          70.5691  174.9143  138.0172 H        47        0    0.0000
    746 H          71.8804  175.2557  139.1602 H        47        0    0.0000
    747 H          70.0064  176.4855  140.0822 H        47        0    0.0000
    748 H          68.8935  175.1455  139.7532 H        47        0    0.0000
    749 H          71.2174  175.2647  141.7276 H        47        0    0.0000
    750 H          68.8316  173.8499  142.6503 H        47        0    0.0000
    751 H          69.7875  175.1071  143.4254 H        47        0    0.0000
    752 H          70.0327  172.5481  141.2912 H        47        0    0.0000
    753 H          71.6920  173.0666  141.5231 H        47        0    0.0000
    754 H          70.0118  172.8453  139.0529 H        47        0    0.0000
    755 H          71.7523  171.8498  138.1095 H        47        0    0.0000
    756 H          72.8423  173.1764  138.4929 H        47        0    0.0000
    757 C          75.7873  170.0802  138.2168 C.3      48        0    0.0000
    758 C          74.5827  171.0088  138.2011 C.3      48        0    0.0000
    759 C          73.7617  170.5513  139.4135 C.3      48        0    0.0000
    760 C          72.8087  171.6038  139.9941 C.3      48        0    0.0000
    761 C          74.7814  169.9608  140.4090 C.3      48        0    0.0000
    762 C          76.1483  170.0122  139.7021 C.3      48        0    0.0000
    763 C          77.0765  168.8366  140.0172 C.3      48        0    0.0000
    764 H          75.5098  169.0916  137.8312 H        48        0    0.0000
    765 H          76.6105  170.4668  137.6082 H        48        0    0.0000
    766 H          74.9193  172.0466  138.2979 H        48        0    0.0000
    767 H          74.0155  170.9264  137.2687 H        48        0    0.0000
    768 H          73.1311  169.7148  139.0772 H        48        0    0.0000
    769 H          72.0413  171.0976  140.5918 H        48        0    0.0000
    770 H          73.3659  172.2511  140.6816 H        48        0    0.0000
    771 H          74.4944  168.9281  140.6433 H        48        0    0.0000
    772 H          74.8172  170.5031  141.3597 H        48        0    0.0000
    773 H          76.6428  170.9544  139.9798 H        48        0    0.0000
    774 H          77.3387  168.8365  141.0819 H        48        0    0.0000
    775 H          76.5480  167.8956  139.8233 H        48        0    0.0000
    776 C          78.4422  166.5396  136.8485 C.3      49        0    0.0000
    777 C          78.0784  166.4830  138.3346 C.3      49        0    0.0000
    778 C          79.0141  167.4628  139.0512 C.3      49        0    0.0000
    779 C          78.3790  168.8612  139.1691 C.3      49        0    0.0000
    780 C          80.2705  167.4077  138.1728 C.3      49        0    0.0000
    781 C          79.7315  167.3708  136.7406 C.3      49        0    0.0000
    782 C          80.7594  166.8219  135.7447 C.3      49        0    0.0000
    783 H          78.5660  165.5228  136.4589 H        49        0    0.0000
    784 H          77.6382  167.0121  136.2726 H        49        0    0.0000
    785 H          78.2649  165.4672  138.7057 H        49        0    0.0000
    786 H          77.0181  166.6961  138.5043 H        49        0    0.0000
    787 H          79.2430  167.0898  140.0577 H        49        0    0.0000
    788 H          78.1296  169.2294  138.1666 H        49        0    0.0000
    789 H          79.0821  169.5818  139.6004 H        49        0    0.0000
    790 H          80.8278  166.4879  138.3933 H        49        0    0.0000
    791 H          80.9520  168.2490  138.3302 H        49        0    0.0000
    792 H          79.4598  168.3942  136.4459 H        49        0    0.0000
    793 H          80.9112  167.5317  134.9232 H        49        0    0.0000
    794 H          80.3761  165.8966  135.2987 H        49        0    0.0000
    795 C          82.1233  166.5189  136.4290 C.3      50        0    0.0000
    796 C          83.1638  165.8867  135.4936 C.3      50        0    0.0000
    797 H          82.5212  167.4791  136.7815 H        50        0    0.0000
    798 H          81.9604  165.9012  137.3200 H        50        0    0.0000
    799 H          82.7647  164.9936  134.9985 H        50        0    0.0000
    800 H          83.3920  166.6097  134.7000 H        50        0    0.0000
    801 C          83.9870  165.1424  139.9235 C.3      51        0    0.0000
    802 C          83.4172  165.2117  138.5149 C.3      51        0    0.0000
    803 C          84.5546  165.8383  137.6985 C.3      51        0    0.0000
    804 C          84.5229  165.5396  136.1942 C.3      51        0    0.0000
    805 C          85.8566  165.4421  138.4246 C.3      51        0    0.0000
    806 C          85.4253  164.6761  139.6887 C.3      51        0    0.0000
    807 C          86.3145  164.9086  140.9128 C.3      51        0    0.0000
    808 H          83.9638  166.1340  140.3917 H        51        0    0.0000
    809 H          83.4260  164.4502  140.5587 H        51        0    0.0000
    810 H          83.1688  164.2021  138.1704 H        51        0    0.0000
    811 H          82.5040  165.8138  138.4729 H        51        0    0.0000
    812 H          84.4590  166.9297  137.7993 H        51        0    0.0000
    813 H          85.3250  166.1031  135.7027 H        51        0    0.0000
    814 H          84.7426  164.4772  136.0352 H        51        0    0.0000
    815 H          86.4126  166.3521  138.6824 H        51        0    0.0000
    816 H          86.5222  164.8280  137.8088 H        51        0    0.0000
    817 H          85.4045  163.6030  139.4492 H        51        0    0.0000
    818 H          86.7525  165.9131  140.8768 H        51        0    0.0000
    819 H          85.7003  164.8656  141.8201 H        51        0    0.0000
    820 C          86.0840  162.2513  143.5457 C.3      52        0    0.0000
    821 C          86.6305  163.6764  143.4251 C.3      52        0    0.0000
    822 C          87.8481  163.6005  142.4974 C.3      52        0    0.0000
    823 C          87.4535  163.8573  141.0308 C.3      52        0    0.0000
    824 C          88.3758  162.1871  142.7751 C.3      52        0    0.0000
    825 C          87.1153  161.3249  142.8803 C.3      52        0    0.0000
    826 C          87.3676  160.0125  143.6311 C.3      52        0    0.0000
    827 H          85.9204  162.0058  144.6011 H        52        0    0.0000
    828 H          85.1160  162.1656  143.0388 H        52        0    0.0000
    829 H          86.9522  164.0167  144.4176 H        52        0    0.0000
    830 H          85.8664  164.3793  143.0780 H        52        0    0.0000
    831 H          88.5941  164.3461  142.8011 H        52        0    0.0000
    832 H          87.1037  162.9196  140.5823 H        52        0    0.0000
    833 H          88.3150  164.1842  140.4389 H        52        0    0.0000
    834 H          88.9199  162.1833  143.7287 H        52        0    0.0000
    835 H          89.0602  161.8164  142.0063 H        52        0    0.0000
    836 H          86.7676  161.0936  141.8636 H        52        0    0.0000
    837 H          87.6984  159.2326  142.9353 H        52        0    0.0000
    838 H          86.4296  159.6627  144.0782 H        52        0    0.0000
    839 C          88.4248  160.1853  144.7593 C.3      53        0    0.0000
    840 C          88.1050  159.4003  146.0395 C.3      53        0    0.0000
    841 H          88.4473  161.2533  145.0114 H        53        0    0.0000
    842 H          89.4200  159.9331  144.3748 H        53        0    0.0000
    843 H          87.0509  159.5743  146.2911 H        53        0    0.0000
    844 H          88.2160  158.3208  145.8837 H        53        0    0.0000
    845 C          90.0526  156.7257  149.1000 C.3      54        0    0.0000
    846 C          89.7003  157.4793  147.8266 C.3      54        0    0.0000
    847 C          89.0337  158.7513  148.3545 C.3      54        0    0.0000
    848 C          88.9470  159.8437  147.2858 C.3      54        0    0.0000
    849 C          89.8780  159.1224  149.5875 C.3      54        0    0.0000
    850 C          90.5817  157.8235  150.0316 C.3      54        0    0.0000
    851 C          90.4966  157.5081  151.5303 C.3      54        0    0.0000
    852 H          90.8002  155.9467  148.9202 H        54        0    0.0000
    853 H          89.1546  156.2422  149.4996 H        54        0    0.0000
    854 H          90.6099  157.7147  147.2607 H        54        0    0.0000
    855 H          89.0340  156.9010  147.1794 H        54        0    0.0000
    856 H          88.0212  158.4926  148.6973 H        54        0    0.0000
    857 H          88.5103  160.7551  147.7110 H        54        0    0.0000
    858 H          89.9582  160.1053  146.9523 H        54        0    0.0000
    859 H          90.6384  159.8724  149.3366 H        54        0    0.0000
    860 H          89.2485  159.5590  150.3699 H        54        0    0.0000
    861 H          91.6502  157.9516  149.8025 H        54        0    0.0000
    862 H          91.5093  157.3567  151.9226 H        54        0    0.0000
    863 H          89.9628  156.5598  151.6646 H        54        0    0.0000
    864 C          90.1489  156.7568  155.6664 C.3      55        0    0.0000
    865 C          89.5742  156.8345  154.2603 C.3      55        0    0.0000
    866 C          89.7468  158.3114  153.8835 C.3      55        0    0.0000
    867 C          89.7873  158.6030  152.3780 C.3      55        0    0.0000
    868 C          90.9669  158.8069  154.6867 C.3      55        0    0.0000
    869 C          91.4049  157.6255  155.5717 C.3      55        0    0.0000
    870 C          91.9378  158.0218  156.9508 C.3      55        0    0.0000
    871 H          89.4362  157.1689  156.3912 H        55        0    0.0000
    872 H          90.3786  155.7276  155.9588 H        55        0    0.0000
    873 H          90.1385  156.1702  153.5969 H        55        0    0.0000
    874 H          88.5248  156.5248  154.2301 H        55        0    0.0000
    875 H          88.8717  158.8482  154.2792 H        55        0    0.0000
    876 H          88.7609  158.7209  152.0108 H        55        0    0.0000
    877 H          90.2921  159.5621  152.2124 H        55        0    0.0000
    878 H          90.6671  159.6690  155.2956 H        55        0    0.0000
    879 H          91.7934  159.1405  154.0505 H        55        0    0.0000
    880 H          92.1757  157.0583  155.0299 H        55        0    0.0000
    881 H          91.1455  157.9301  157.7031 H        55        0    0.0000
    882 H          92.7331  157.3268  157.2453 H        55        0    0.0000
    883 C          92.5046  159.4690  156.9778 C.3      56        0    0.0000
    884 C          93.0573  159.8972  158.3448 C.3      56        0    0.0000
    885 H          91.6743  160.1393  156.7212 H        56        0    0.0000
    886 H          93.2570  159.5859  156.1890 H        56        0    0.0000
    887 H          92.2603  159.7714  159.0888 H        56        0    0.0000
    888 H          93.8853  159.2515  158.6603 H        56        0    0.0000
    889 C          93.6907  161.0041  162.0948 C.3      57        0    0.0000
    890 C          93.0397  161.7442  160.9237 C.3      57        0    0.0000
    891 C          94.0754  161.7637  159.7852 C.3      57        0    0.0000
    892 C          93.5040  161.3988  158.4095 C.3      57        0    0.0000
    893 C          95.1640  160.7874  160.2423 C.3      57        0    0.0000
    894 C          95.1858  160.9212  161.7688 C.3      57        0    0.0000
    895 C          95.9774  162.1562  162.2391 C.3      57        0    0.0000
    896 H          93.4736  161.4864  163.0526 H        57        0    0.0000
    897 H          93.2766  159.9888  162.1449 H        57        0    0.0000
    898 H          92.1048  161.2486  160.6402 H        57        0    0.0000
    899 H          92.7870  162.7706  161.2143 H        57        0    0.0000
    900 H          94.5170  162.7694  159.7377 H        57        0    0.0000
    901 H          92.6327  162.0304  158.1990 H        57        0    0.0000
    902 H          94.2403  161.6010  157.6231 H        57        0    0.0000
    903 H          96.1326  161.0084  159.7822 H        57        0    0.0000
    904 H          94.8941  159.7591  159.9691 H        57        0    0.0000
    905 H          95.6230  160.0170  162.2112 H        57        0    0.0000
    906 H          95.3199  163.0237  162.3639 H        57        0    0.0000
    907 H          96.7185  162.4253  161.4771 H        57        0    0.0000
    908 C          96.7313  161.8854  163.5733 C.3      58        0    0.0000
    909 C          98.2285  162.2220  163.5233 C.3      58        0    0.0000
    910 H          96.2645  162.5220  164.3358 H        58        0    0.0000
    911 H          96.5659  160.8480  163.8871 H        58        0    0.0000
    912 H          98.5148  162.6226  162.5438 H        58        0    0.0000
    913 H          98.4237  163.0155  164.2560 H        58        0    0.0000
    914 C         100.8141  161.3539  166.7160 C.3      59        0    0.0000
    915 C         100.5675  162.3274  165.5603 C.3      59        0    0.0000
    916 C         100.5811  161.4925  164.2751 C.3      59        0    0.0000
    917 C          99.1644  161.0207  163.8970 C.3      59        0    0.0000
    918 C         101.5518  160.3612  164.6373 C.3      59        0    0.0000
    919 C         101.1982  160.0058  166.0837 C.3      59        0    0.0000
    920 C         102.3376  159.2707  166.7987 C.3      59        0    0.0000
    921 H         101.5997  161.7481  167.3706 H        59        0    0.0000
    922 H          99.9099  161.2420  167.3253 H        59        0    0.0000
    923 H         101.3892  163.0540  165.5288 H        59        0    0.0000
    924 H          99.6421  162.8966  165.6956 H        59        0    0.0000
    925 H         100.9903  162.0881  163.4490 H        59        0    0.0000
    926 H          98.7212  160.4919  164.7496 H        59        0    0.0000
    927 H          99.1917  160.3069  163.0668 H        59        0    0.0000
    928 H         102.5826  160.7343  164.5785 H        59        0    0.0000
    929 H         101.4795  159.4934  163.9751 H        59        0    0.0000
    930 H         100.3077  159.3616  166.0746 H        59        0    0.0000
    931 H         101.9365  158.4762  167.4386 H        59        0    0.0000
    932 H         102.8671  159.9710  167.4554 H        59        0    0.0000
    933 C         105.6087  156.1190  167.4663 C.3      60        0    0.0000
    934 C         104.3126  156.9147  167.4480 C.3      60        0    0.0000
    935 C         104.5962  158.0389  166.4436 C.3      60        0    0.0000
    936 C         103.3559  158.6632  165.7916 C.3      60        0    0.0000
    937 C         105.6428  157.4690  165.4642 C.3      60        0    0.0000
    938 C         105.9988  156.0655  165.9877 C.3      60        0    0.0000
    939 C         107.4620  155.6610  165.7912 C.3      60        0    0.0000
    940 H         106.3686  156.6445  168.0574 H        60        0    0.0000
    941 H         105.4710  155.1214  167.8943 H        60        0    0.0000
    942 H         103.4905  156.2679  167.1230 H        60        0    0.0000
    943 H         104.0592  157.3057  168.4384 H        60        0    0.0000
    944 H         105.0941  158.8477  166.9990 H        60        0    0.0000
    945 H         103.6764  159.4504  165.0988 H        60        0    0.0000
    946 H         102.8470  157.9021  165.1883 H        60        0    0.0000
    947 H         106.5219  158.1255  165.4596 H        60        0    0.0000
    948 H         105.2813  157.4163  164.4319 H        60        0    0.0000
    949 H         105.3463  155.3364  165.4856 H        60        0    0.0000
    950 H         107.5391  154.5761  165.6526 H        60        0    0.0000
    951 H         107.8456  156.1234  164.8739 H        60        0    0.0000
    952 C         112.0593  155.6387  166.3716 C.3      61        0    0.0000
    953 C         110.6277  155.7950  165.8522 C.3      61        0    0.0000
    954 C         109.7044  155.3496  166.9939 C.3      61        0    0.0000
    955 C         108.3646  156.0906  166.9816 C.3      61        0    0.0000
    956 C         110.5560  155.5906  168.2447 C.3      61        0    0.0000
    957 C         111.9415  155.1053  167.8054 C.3      61        0    0.0000
    958 C         113.0943  155.5742  168.6974 C.3      61        0    0.0000
    959 H         112.6401  154.9539  165.7443 H        61        0    0.0000
    960 H         112.5653  156.6113  166.3456 H        61        0    0.0000
    961 H         110.4600  155.1919  164.9534 H        61        0    0.0000
    962 H         110.4510  156.8420  165.5785 H        61        0    0.0000
    963 H         109.5299  154.2686  166.8914 H        61        0    0.0000
    964 H         108.5482  157.1693  166.9085 H        61        0    0.0000
    965 H         107.8294  155.9244  167.9239 H        61        0    0.0000
    966 H         110.1817  155.0317  169.1082 H        61        0    0.0000
    967 H         110.5776  156.6561  168.5060 H        61        0    0.0000
    968 H         111.9308  154.0064  167.7623 H        61        0    0.0000
    969 H         112.7180  155.8584  169.6871 H        61        0    0.0000
    970 H         113.5469  156.4728  168.2614 H        61        0    0.0000
    971 C         114.1975  154.4921  168.8549 C.3      62        0    0.0000
    972 C         114.5549  154.1732  170.3136 C.3      62        0    0.0000
    973 H         113.8109  153.5756  168.3909 H        62        0    0.0000
    974 H         115.0852  154.7833  168.2812 H        62        0    0.0000
    975 H         115.3712  154.8108  170.6729 H        62        0    0.0000
    976 H         113.6806  154.4023  170.9363 H        62        0    0.0000
    977 C         112.0686  150.5506  171.5282 C.3      63        0    0.0000
    978 C         112.5147  151.9365  171.0646 C.3      63        0    0.0000
    979 C         113.7589  151.7276  170.1841 C.3      63        0    0.0000
    980 C         114.9096  152.6672  170.5681 C.3      63        0    0.0000
    981 C         114.0944  150.2352  170.3289 C.3      63        0    0.0000
    982 C         112.7458  149.5513  170.5868 C.3      63        0    0.0000
    983 C         111.9097  149.3067  169.3173 C.3      63        0    0.0000
    984 H         112.4301  150.3852  172.5512 H        63        0    0.0000
    985 H         110.9784  150.4556  171.5514 H        63        0    0.0000
    986 H         112.7064  152.5843  171.9269 H        63        0    0.0000
    987 H         111.7223  152.4119  170.4745 H        63        0    0.0000
    988 H         113.4706  151.9224  169.1415 H        63        0    0.0000
    989 H         115.8179  152.4032  170.0140 H        63        0    0.0000
    990 H         115.1403  152.5407  171.6327 H        63        0    0.0000
    991 H         114.6132  149.8439  169.4484 H        63        0    0.0000
    992 H         114.7497  150.0744  171.1949 H        63        0    0.0000
    993 H         112.8988  148.5978  171.1081 H        63        0    0.0000
    994 H         111.1650  150.0969  169.1735 H        63        0    0.0000
    995 H         111.3532  148.3680  169.4270 H        63        0    0.0000
    996 C         115.8109  150.5050  169.8977 C.3      64        0    0.0000
    997 C         114.6163  150.7207  168.9649 C.3      64        0    0.0000
    998 C         114.2883  149.3489  168.3609 C.3      64        0    0.0000
    999 C         112.7980  149.1928  168.0461 C.3      64        0    0.0000
   1000 C         114.8254  148.3693  169.4096 C.3      64        0    0.0000
   1001 C         116.1550  149.0119  169.8185 C.3      64        0    0.0000
   1002 C         116.7447  148.4802  171.1277 C.3      64        0    0.0000
   1003 H         116.6664  151.1215  169.6015 H        64        0    0.0000
   1004 H         115.5356  150.7998  170.9174 H        64        0    0.0000
   1005 H         114.8472  151.4499  168.1809 H        64        0    0.0000
   1006 H         113.7714  151.1184  169.5397 H        64        0    0.0000
   1007 H         114.8752  149.2316  167.4382 H        64        0    0.0000
   1008 H         112.6257  148.2120  167.5871 H        64        0    0.0000
   1009 H         112.4835  149.9445  167.3126 H        64        0    0.0000
   1010 H         114.9662  147.3652  168.9971 H        64        0    0.0000
   1011 H         114.1436  148.2981  170.2663 H        64        0    0.0000
   1012 H         116.8787  148.8699  169.0026 H        64        0    0.0000
   1013 H         116.7106  147.3846  171.1429 H        64        0    0.0000
   1014 H         116.1316  148.8273  171.9681 H        64        0    0.0000
   1015 C         118.2063  148.9552  171.3534 C.3      65        0    0.0000
   1016 C         119.0028  148.0796  172.3313 C.3      65        0    0.0000
   1017 H         118.1492  149.9680  171.7722 H        65        0    0.0000
   1018 H         118.7192  149.0435  170.3885 H        65        0    0.0000
   1019 H         118.9797  148.5622  173.3168 H        65        0    0.0000
   1020 H         118.5381  147.0942  172.4539 H        65        0    0.0000
   1021 C         120.6962  144.3687  173.0507 C.3      66        0    0.0000
   1022 C         120.1745  145.7744  173.3587 C.3      66        0    0.0000
   1023 C         121.1715  146.7621  172.7266 C.3      66        0    0.0000
   1024 C         120.5132  147.9072  171.9471 C.3      66        0    0.0000
   1025 C         122.0634  145.8887  171.8383 C.3      66        0    0.0000
   1026 C         122.1413  144.5455  172.5720 C.3      66        0    0.0000
   1027 C         123.1630  144.5641  173.7247 C.3      66        0    0.0000
   1028 H         120.5945  143.6991  173.9100 H        66        0    0.0000
   1029 H         120.0975  143.9403  172.2366 H        66        0    0.0000
   1030 H         119.1567  145.8899  172.9702 H        66        0    0.0000
   1031 H         120.1278  145.9350  174.4421 H        66        0    0.0000
   1032 H         121.7955  147.1827  173.5282 H        66        0    0.0000
   1033 H         121.0375  148.8448  172.1672 H        66        0    0.0000
   1034 H         120.6046  147.7380  170.8680 H        66        0    0.0000
   1035 H         123.0467  146.3410  171.6737 H        66        0    0.0000
   1036 H         121.5971  145.7422  170.8554 H        66        0    0.0000
   1037 H         122.4071  143.7529  171.8611 H        66        0    0.0000
   1038 H         122.6854  144.8363  174.6725 H        66        0    0.0000
   1039 H         123.9260  145.3251  173.5224 H        66        0    0.0000
   1040 C         123.1875  139.5886  174.0072 C.3      67        0    0.0000
   1041 C         123.0892  140.9222  174.7465 C.3      67        0    0.0000
   1042 C         122.9220  142.0107  173.6722 C.3      67        0    0.0000
   1043 C         123.8786  143.1914  173.8844 C.3      67        0    0.0000
   1044 C         123.1203  141.2764  172.3372 C.3      67        0    0.0000
   1045 C         122.6401  139.8435  172.6005 C.3      67        0    0.0000
   1046 C         121.1113  139.6701  172.5431 C.3      67        0    0.0000
   1047 H         124.2438  139.2990  173.9368 H        67        0    0.0000
   1048 H         122.6667  138.7849  174.5372 H        67        0    0.0000
   1049 H         123.9728  141.0761  175.3757 H        67        0    0.0000
   1050 H         122.2169  140.9239  175.4106 H        67        0    0.0000
   1051 H         121.8864  142.3759  173.7209 H        67        0    0.0000
   1052 H         124.7201  143.1304  173.1846 H        67        0    0.0000
   1053 H         124.3023  143.1371  174.8945 H        67        0    0.0000
   1054 H         122.5856  141.7648  171.5168 H        67        0    0.0000
   1055 H         124.1846  141.2546  172.0690 H        67        0    0.0000
   1056 H         123.1093  139.1508  171.8902 H        67        0    0.0000
   1057 H         120.6462  140.4466  171.9264 H        67        0    0.0000
   1058 H         120.6973  139.7822  173.5526 H        67        0    0.0000
   1059 C         120.7023  138.2683  172.0089 C.3      68        0    0.0000
   1060 C         120.4599  137.2270  173.1108 C.3      68        0    0.0000
   1061 H         119.7645  138.4018  171.4544 H        68        0    0.0000
   1062 H         121.4470  137.9171  171.2850 H        68        0    0.0000
   1063 H         119.8596  137.6436  173.9282 H        68        0    0.0000
   1064 H         119.8749  136.4046  172.6795 H        68        0    0.0000
   1065 C         123.3104  137.9589  171.1295 C.3      69        0    0.0000
   1066 C         122.3883  136.7409  171.2310 C.3      69        0    0.0000
   1067 C         122.6970  136.0698  172.5739 C.3      69        0    0.0000
   1068 C         121.7727  136.5939  173.6890 C.3      69        0    0.0000
   1069 C         124.1809  136.4071  172.7678 C.3      69        0    0.0000
   1070 C         124.3051  137.8586  172.2979 C.3      69        0    0.0000
   1071 C         125.7472  138.2335  171.9380 C.3      69        0    0.0000
   1072 H         123.8098  137.9646  170.1539 H        69        0    0.0000
   1073 H         122.7323  138.8872  171.2035 H        69        0    0.0000
   1074 H         122.6286  136.0468  170.4156 H        69        0    0.0000
   1075 H         121.3345  137.0152  171.1175 H        69        0    0.0000
   1076 H         122.5674  134.9836  172.4853 H        69        0    0.0000
   1077 H         122.3018  137.3640  174.2633 H        69        0    0.0000
   1078 H         121.5140  135.7992  174.3969 H        69        0    0.0000
   1079 H         124.7889  135.7486  172.1338 H        69        0    0.0000
   1080 H         124.5275  136.2811  173.7979 H        69        0    0.0000
   1081 H         123.9564  138.5160  173.1067 H        69        0    0.0000
   1082 H         125.8832  139.3200  171.9905 H        69        0    0.0000
   1083 H         125.9530  137.9370  170.9027 H        69        0    0.0000
   1084 C         125.0404  136.6485  176.1341 C.3      70        0    0.0000
   1085 C         125.1493  137.5139  174.8864 C.3      70        0    0.0000
   1086 C         126.1474  136.7394  174.0194 C.3      70        0    0.0000
   1087 C         126.7768  137.5348  172.8717 C.3      70        0    0.0000
   1088 C         127.1414  136.1060  175.0125 C.3      70        0    0.0000
   1089 C         126.4961  136.2538  176.4043 C.3      70        0    0.0000
   1090 C         126.6901  135.0659  177.3516 C.3      70        0    0.0000
   1091 H         124.6000  137.1953  176.9737 H        70        0    0.0000
   1092 H         124.4090  135.7777  175.9265 H        70        0    0.0000
   1093 H         124.1823  137.6378  174.3893 H        70        0    0.0000
   1094 H         125.5227  138.5077  175.1569 H        70        0    0.0000
   1095 H         125.5914  135.9100  173.5567 H        70        0    0.0000
   1096 H         127.4472  138.2956  173.2888 H        70        0    0.0000
   1097 H         127.3994  136.8628  172.2691 H        70        0    0.0000
   1098 H         128.1196  136.5989  175.0084 H        70        0    0.0000
   1099 H         127.3208  135.0617  174.7350 H        70        0    0.0000
   1100 H         126.9771  137.1188  176.8853 H        70        0    0.0000
   1101 H         126.6039  135.4160  178.3871 H        70        0    0.0000
   1102 H         125.8787  134.3455  177.1940 H        70        0    0.0000
   1103 C         128.0530  134.3292  177.1842 C.3      71        0    0.0000
   1104 C         128.6482  133.8113  178.5013 C.3      71        0    0.0000
   1105 H         128.7552  135.0558  176.7557 H        71        0    0.0000
   1106 H         127.9491  133.5226  176.4490 H        71        0    0.0000
   1107 H         128.7352  134.6595  179.1924 H        71        0    0.0000
   1108 H         127.9830  133.0834  178.9806 H        71        0    0.0000
   1109 C         130.0839  133.1983  178.3542 C.3      72        0    0.0000
   1110 C         130.2226  131.7864  178.9415 C.3      72        0    0.0000
   1111 H         130.7689  133.8618  178.8974 H        72        0    0.0000
   1112 H         130.3907  133.2245  177.3020 H        72        0    0.0000
   1113 H         130.1803  131.8670  180.0353 H        72        0    0.0000
   1114 H         129.3850  131.1457  178.6418 H        72        0    0.0000
   1115 C         133.3432  130.8675  181.9187 C.3      73        0    0.0000
   1116 C         132.1592  131.3193  181.0598 C.3      73        0    0.0000
   1117 C         132.6750  131.3862  179.6164 C.3      73        0    0.0000
   1118 C         131.5788  131.0813  178.5918 C.3      73        0    0.0000
   1119 C         133.8421  130.3932  179.6172 C.3      73        0    0.0000
   1120 C         134.5252  130.6803  180.9585 C.3      73        0    0.0000
   1121 C         135.4904  129.5889  181.4295 C.3      73        0    0.0000
   1122 H         133.5797  131.6046  182.6937 H        73        0    0.0000
   1123 H         133.0880  129.9307  182.4284 H        73        0    0.0000
   1124 H         131.7767  132.2925  181.3857 H        73        0    0.0000
   1125 H         131.3393  130.5980  181.1599 H        73        0    0.0000
   1126 H         133.0739  132.3961  179.4415 H        73        0    0.0000
   1127 H         131.4093  129.9986  178.5543 H        73        0    0.0000
   1128 H         131.9003  131.3858  177.5889 H        73        0    0.0000
   1129 H         134.5176  130.5553  178.7713 H        73        0    0.0000
   1130 H         133.4781  129.3590  179.5751 H        73        0    0.0000
   1131 H         135.0595  131.6385  180.8820 H        73        0    0.0000
   1132 H         135.0212  128.6021  181.3407 H        73        0    0.0000
   1133 H         135.7144  129.7380  182.4925 H        73        0    0.0000
   1134 C         138.5310  126.2950  181.4239 C.3      74        0    0.0000
   1135 C         137.7181  127.1726  180.4824 C.3      74        0    0.0000
   1136 C         137.8488  128.5629  181.1129 C.3      74        0    0.0000
   1137 C         136.8264  129.5994  180.6370 C.3      74        0    0.0000
   1138 C         137.8866  128.3167  182.6339 C.3      74        0    0.0000
   1139 C         138.1151  126.8026  182.8086 C.3      74        0    0.0000
   1140 C         139.0419  126.4031  183.9609 C.3      74        0    0.0000
   1141 H         138.3045  125.2327  181.2903 H        74        0    0.0000
   1142 H         139.6002  126.4413  181.2354 H        74        0    0.0000
   1143 H         138.1081  127.1463  179.4602 H        74        0    0.0000
   1144 H         136.6788  126.8267  180.4590 H        74        0    0.0000
   1145 H         138.8398  128.9492  180.8307 H        74        0    0.0000
   1146 H         137.2705  130.5994  180.7085 H        74        0    0.0000
   1147 H         136.6081  129.4268  179.5764 H        74        0    0.0000
   1148 H         136.9570  128.6069  183.1354 H        74        0    0.0000
   1149 H         138.6816  128.9218  183.0830 H        74        0    0.0000
   1150 H         137.1328  126.3582  183.0293 H        74        0    0.0000
   1151 H         139.1661  127.2598  184.6338 H        74        0    0.0000
   1152 H         138.5637  125.6091  184.5466 H        74        0    0.0000
   1153 C         140.4504  125.9129  183.5093 C.3      75        0    0.0000
   1154 C         141.2788  125.2747  184.6335 C.3      75        0    0.0000
   1155 H         140.2880  125.1541  182.7332 H        75        0    0.0000
   1156 H         140.9933  126.7375  183.0327 H        75        0    0.0000
   1157 H         141.6556  126.0322  185.3307 H        75        0    0.0000
   1158 H         140.6177  124.6168  185.2122 H        75        0    0.0000
   1159 C         145.0646  123.6841  186.6207 C.3      76        0    0.0000
   1160 C         143.6974  124.3146  186.3597 C.3      76        0    0.0000
   1161 C         143.0424  123.4967  185.2332 C.3      76        0    0.0000
   1162 C         142.4673  124.3876  184.1243 C.3      76        0    0.0000
   1163 C         144.1428  122.5360  184.7568 C.3      76        0    0.0000
   1164 C         145.0126  122.2876  185.9957 C.3      76        0    0.0000
   1165 C         144.4363  121.2464  186.9726 C.3      76        0    0.0000
   1166 H         145.8330  124.2795  186.1112 H        76        0    0.0000
   1167 H         145.3167  123.6744  187.6858 H        76        0    0.0000
   1168 H         143.8077  125.3751  186.1081 H        76        0    0.0000
   1169 H         143.0768  124.2605  187.2619 H        76        0    0.0000
   1170 H         142.2284  122.9053  185.6756 H        76        0    0.0000
   1171 H         142.1346  123.7754  183.2780 H        76        0    0.0000
   1172 H         143.2558  125.0491  183.7458 H        76        0    0.0000
   1173 H         143.7289  121.6167  184.3311 H        76        0    0.0000
   1174 H         144.7538  123.0123  183.9790 H        76        0    0.0000
   1175 H         146.0219  121.9801  185.6938 H        76        0    0.0000
   1176 H         143.3434  121.3045  187.0161 H        76        0    0.0000
   1177 H         144.8017  121.4598  187.9844 H        76        0    0.0000
   1178 C         146.6178  118.3109  189.5156 C.3      77        0    0.0000
   1179 C         146.0760  119.5889  188.8708 C.3      77        0    0.0000
   1180 C         146.1359  119.3731  187.3479 C.3      77        0    0.0000
   1181 C         144.8649  119.7983  186.6024 C.3      77        0    0.0000
   1182 C         146.4355  117.8794  187.1854 C.3      77        0    0.0000
   1183 C         147.3089  117.5273  188.3944 C.3      77        0    0.0000
   1184 C         148.7818  117.9311  188.1926 C.3      77        0    0.0000
   1185 H         147.2684  118.5288  190.3679 H        77        0    0.0000
   1186 H         145.7735  117.7228  189.8978 H        77        0    0.0000
   1187 H         145.0617  119.7904  189.2325 H        77        0    0.0000
   1188 H         146.6960  120.4491  189.1493 H        77        0    0.0000
   1189 H         146.9925  119.9379  186.9529 H        77        0    0.0000
   1190 H         145.0460  119.7545  185.5218 H        77        0    0.0000
   1191 H         144.0451  119.1028  186.8156 H        77        0    0.0000
   1192 H         146.9236  117.6606  186.2301 H        77        0    0.0000
   1193 H         145.5058  117.2969  187.2237 H        77        0    0.0000
   1194 H         147.2493  116.4491  188.5899 H        77        0    0.0000
   1195 H         148.9744  118.9352  188.5863 H        77        0    0.0000
   1196 H         149.0073  117.9608  187.1199 H        77        0    0.0000
   1197 C         150.5962  113.7390  186.9849 C.3      78        0    0.0000
   1198 C         150.3334  115.2372  186.9793 C.3      78        0    0.0000
   1199 C         149.6474  115.4859  188.3286 C.3      78        0    0.0000
   1200 C         149.7552  116.9193  188.8640 C.3      78        0    0.0000
   1201 C         150.1732  114.3853  189.2730 C.3      78        0    0.0000
   1202 C         151.0762  113.4807  188.4146 C.3      78        0    0.0000
   1203 C         151.0271  111.9951  188.7803 C.3      78        0    0.0000
   1204 H         149.6705  113.1903  186.7729 H        78        0    0.0000
   1205 H         151.3435  113.4514  186.2391 H        78        0    0.0000
   1206 H         151.2836  115.7752  186.8936 H        78        0    0.0000
   1207 H         149.7014  115.5379  186.1378 H        78        0    0.0000
   1208 H         148.5745  115.2892  188.1845 H        78        0    0.0000
   1209 H         149.5630  116.9112  189.9435 H        78        0    0.0000
   1210 H         150.7837  117.2751  188.7308 H        78        0    0.0000
   1211 H         149.3210  113.8256  189.6781 H        78        0    0.0000
   1212 H         150.7271  114.7831  190.1298 H        78        0    0.0000
   1213 H         152.1100  113.8457  188.5020 H        78        0    0.0000
   1214 H         149.9874  111.6708  188.9065 H        78        0    0.0000
   1215 H         151.4427  111.4049  187.9549 H        78        0    0.0000
   1216 C         152.2202  115.2681  191.2426 C.3      79        0    0.0000
   1217 C         151.3827  114.1701  190.6020 C.3      79        0    0.0000
   1218 C         152.1839  112.9023  190.9154 C.3      79        0    0.0000
   1219 C         151.8247  111.6730  190.0751 C.3      79        0    0.0000
   1220 C         153.6627  113.3336  190.8634 C.3      79        0    0.0000
   1221 C         153.6505  114.8748  190.8587 C.3      79        0    0.0000
   1222 C         154.7586  115.5465  191.6754 C.3      79        0    0.0000
   1223 H         151.9513  116.2598  190.8659 H        79        0    0.0000
   1224 H         152.0686  115.2637  192.3276 H        79        0    0.0000
   1225 H         150.3716  114.1312  191.0190 H        79        0    0.0000
   1226 H         151.2995  114.3493  189.5243 H        79        0    0.0000
   1227 H         151.9682  112.6392  191.9619 H        79        0    0.0000
   1228 H         152.7459  111.1462  189.7995 H        79        0    0.0000
   1229 H         151.2365  110.9795  190.6877 H        79        0    0.0000
   1230 H         154.1814  112.9690  189.9703 H        79        0    0.0000
   1231 H         154.1965  112.9147  191.7233 H        79        0    0.0000
   1232 H         153.7981  115.1887  189.8143 H        79        0    0.0000
   1233 H         155.6850  115.5478  191.0889 H        79        0    0.0000
   1234 H         154.4922  116.5963  191.8458 H        79        0    0.0000
   1235 C         155.0386  114.8715  193.0517 C.3      80        0    0.0000
   1236 C         156.0395  115.6364  193.9296 C.3      80        0    0.0000
   1237 H         155.4601  113.8808  192.8388 H        80        0    0.0000
   1238 H         154.0927  114.7027  193.5796 H        80        0    0.0000
   1239 H         156.6951  116.2190  193.2699 H        80        0    0.0000
   1240 H         155.5300  116.3564  194.5807 H        80        0    0.0000
   1241 C         158.5826  116.5610  197.6540 C.3      81        0    0.0000
   1242 C         157.5140  116.4565  196.5627 C.3      81        0    0.0000
   1243 C         158.0726  115.4973  195.5035 C.3      81        0    0.0000
   1244 C         156.9690  114.7117  194.7897 C.3      81        0    0.0000
   1245 C         159.0576  114.6348  196.2995 C.3      81        0    0.0000
   1246 C         159.7424  115.6607  197.2086 C.3      81        0    0.0000
   1247 C         160.4994  115.0571  198.3949 C.3      81        0    0.0000
   1248 H         158.9174  117.5952  197.7885 H        81        0    0.0000
   1249 H         158.1613  116.2289  198.6105 H        81        0    0.0000
   1250 H         157.2902  117.4360  196.1267 H        81        0    0.0000
   1251 H         156.5831  116.0746  196.9988 H        81        0    0.0000
   1252 H         158.6385  116.0894  194.7695 H        81        0    0.0000
   1253 H         156.3530  114.1945  195.5350 H        81        0    0.0000
   1254 H         157.4069  113.9373  194.1492 H        81        0    0.0000
   1255 H         159.7733  114.1239  195.6476 H        81        0    0.0000
   1256 H         158.5278  113.8775  196.8909 H        81        0    0.0000
   1257 H         160.4307  116.2648  196.5997 H        81        0    0.0000
   1258 H         161.5775  115.0535  198.1960 H        81        0    0.0000
   1259 H         160.1980  114.0105  198.5220 H        81        0    0.0000
   1260 C         160.2210  115.8159  199.7214 C.3      82        0    0.0000
   1261 C         161.1115  115.3740  200.8916 C.3      82        0    0.0000
   1262 H         160.4175  116.8779  199.5262 H        82        0    0.0000
   1263 H         159.1579  115.7357  199.9768 H        82        0    0.0000
   1264 H         161.7565  116.1921  201.2330 H        82        0    0.0000
   1265 H         160.4601  115.1147  201.7360 H        82        0    0.0000
   1266 C         164.3562  115.6119  203.0094 C.3      83        0    0.0000
   1267 C         164.0120  115.3860  201.5351 C.3      83        0    0.0000
   1268 C         163.2405  114.0561  201.4620 C.3      83        0    0.0000
   1269 C         161.9826  114.1066  200.5861 C.3      83        0    0.0000
   1270 C         162.9216  113.7188  202.9221 C.3      83        0    0.0000
   1271 C         164.1100  114.2737  203.7146 C.3      83        0    0.0000
   1272 C         165.3312  113.3354  203.6763 C.3      83        0    0.0000
   1273 H         165.3723  115.9974  203.1360 H        83        0    0.0000
   1274 H         163.6726  116.3660  203.4201 H        83        0    0.0000
   1275 H         163.4352  116.2344  201.1506 H        83        0    0.0000
   1276 H         164.9274  115.3185  200.9357 H        83        0    0.0000
   1277 H         163.9201  113.2839  201.0740 H        83        0    0.0000
   1278 H         162.2764  114.1326  199.5299 H        83        0    0.0000
   1279 H         161.3817  113.2007  200.7264 H        83        0    0.0000
   1280 H         162.7749  112.6443  203.0721 H        83        0    0.0000
   1281 H         162.0014  114.2264  203.2392 H        83        0    0.0000
   1282 H         163.8109  114.4414  204.7571 H        83        0    0.0000
   1283 H         166.0044  113.5956  202.8520 H        83        0    0.0000
   1284 H         164.9945  112.3069  203.5001 H        83        0    0.0000
   1285 C         164.8827  116.8430  205.3669 C.3      84        0    0.0000
   1286 C         165.8146  115.8923  204.6116 C.3      84        0    0.0000
   1287 C         166.2028  114.7785  205.6005 C.3      84        0    0.0000
   1288 C         166.1229  113.3629  205.0158 C.3      84        0    0.0000
   1289 C         165.2541  114.9739  206.7875 C.3      84        0    0.0000
   1290 C         165.0225  116.4874  206.8511 C.3      84        0    0.0000
   1291 C         166.1799  117.2303  207.5452 C.3      84        0    0.0000
   1292 H         165.1004  117.8913  205.1416 H        84        0    0.0000
   1293 H         163.8500  116.6532  205.0473 H        84        0    0.0000
   1294 H         165.3139  115.5101  203.7152 H        84        0    0.0000
   1295 H         166.7136  116.4240  204.2785 H        84        0    0.0000
   1296 H         167.2283  114.9682  205.9484 H        84        0    0.0000
   1297 H         167.1368  112.9896  204.8285 H        84        0    0.0000
   1298 H         165.6597  112.6773  205.7347 H        84        0    0.0000
   1299 H         165.6695  114.5679  207.7156 H        84        0    0.0000
   1300 H         164.2994  114.4653  206.6012 H        84        0    0.0000
   1301 H         164.0849  116.6941  207.3827 H        84        0    0.0000
   1302 H         166.1533  118.3023  207.3206 H        84        0    0.0000
   1303 H         167.1358  116.8492  207.1666 H        84        0    0.0000
   1304 C         163.4254  114.6844  208.3528 C.3      85        0    0.0000
   1305 C         164.9349  114.9187  208.3224 C.3      85        0    0.0000
   1306 C         165.2604  115.8505  209.5026 C.3      85        0    0.0000
   1307 C         166.1542  117.0266  209.0878 C.3      85        0    0.0000
   1308 C         163.8910  116.2705  210.0585 C.3      85        0    0.0000
   1309 C         162.9629  115.0873  209.7554 C.3      85        0    0.0000
   1310 C         163.0823  113.9205  210.7528 C.3      85        0    0.0000
   1311 H         162.9495  115.3408  207.6131 H        85        0    0.0000
   1312 H         163.1632  113.6553  208.0878 H        85        0    0.0000
   1313 H         165.2376  115.3341  207.3550 H        85        0    0.0000
   1314 H         165.4684  113.9688  208.4460 H        85        0    0.0000
   1315 H         165.7817  115.2569  210.2669 H        85        0    0.0000
   1316 H         167.1754  116.8778  209.4574 H        85        0    0.0000
   1317 H         165.7804  117.9469  209.5525 H        85        0    0.0000
   1318 H         163.9386  116.5174  211.1236 H        85        0    0.0000
   1319 H         163.5224  117.1600  209.5311 H        85        0    0.0000
   1320 H         161.9194  115.4252  209.7176 H        85        0    0.0000
   1321 H         163.4627  114.2628  211.7212 H        85        0    0.0000
   1322 H         163.8081  113.1923  210.3709 H        85        0    0.0000
   1323 C         162.7083  111.5529  214.1420 C.3      86        0    0.0000
   1324 C         163.1445  111.9651  212.7339 C.3      86        0    0.0000
   1325 C         161.8774  111.9555  211.8601 C.3      86        0    0.0000
   1326 C         161.7271  113.1862  210.9573 C.3      86        0    0.0000
   1327 C         160.7247  111.8214  212.8603 C.3      86        0    0.0000
   1328 C         161.2983  110.9699  213.9981 C.3      86        0    0.0000
   1329 C         161.2961  109.4659  213.6649 C.3      86        0    0.0000
   1330 H         163.4242  110.8679  214.6060 H        86        0    0.0000
   1331 H         162.6642  112.4488  214.7745 H        86        0    0.0000
   1332 H         163.6328  112.9454  212.7647 H        86        0    0.0000
   1333 H         163.8757  111.2514  212.3368 H        86        0    0.0000
   1334 H         161.8952  111.0502  211.2366 H        86        0    0.0000
   1335 H         161.3494  112.8732  209.9766 H        86        0    0.0000
   1336 H         160.9886  113.8799  211.3755 H        86        0    0.0000
   1337 H         159.8348  111.3765  212.4033 H        86        0    0.0000
   1338 H         160.4397  112.8075  213.2493 H        86        0    0.0000
   1339 H         160.7192  111.1419  214.9143 H        86        0    0.0000
   1340 H         162.1898  109.1851  213.0967 H        86        0    0.0000
   1341 H         160.4308  109.2345  213.0325 H        86        0    0.0000
   1342 C         161.2058  108.5902  214.9483 C.3      87        0    0.0000
   1343 C         162.5062  107.8491  215.2906 C.3      87        0    0.0000
   1344 H         160.9718  109.2685  215.7788 H        87        0    0.0000
   1345 H         160.3616  107.8960  214.8632 H        87        0    0.0000
   1346 H         162.5615  106.8824  214.7764 H        87        0    0.0000
   1347 H         163.3475  108.4494  214.9214 H        87        0    0.0000
   1348 C         162.7368  107.6438  216.8279 C.3      88        0    0.0000
   1349 C         163.1923  106.2274  217.2068 C.3      88        0    0.0000
   1350 H         163.5254  108.3464  217.1265 H        88        0    0.0000
   1351 H         161.8342  107.9333  217.3787 H        88        0    0.0000
   1352 H         162.9638  105.5087  216.4110 H        88        0    0.0000
   1353 H         164.2844  106.2386  217.3154 H        88        0    0.0000
   1354 C         161.9657  101.9690  218.4376 C.3      89        0    0.0000
   1355 C         162.0205  103.3261  217.7501 C.3      89        0    0.0000
   1356 C         162.7425  104.2017  218.7795 C.3      89        0    0.0000
   1357 C         162.6074  105.7127  218.5676 C.3      89        0    0.0000
   1358 C         162.2784  103.6793  220.1532 C.3      89        0    0.0000
   1359 C         161.5859  102.3304  219.8773 C.3      89        0    0.0000
   1360 C         161.8359  101.2346  220.9180 C.3      89        0    0.0000
   1361 H         161.2306  101.3046  217.9727 H        89        0    0.0000
   1362 H         162.9467  101.4847  218.3793 H        89        0    0.0000
   1363 H         162.5593  103.2809  216.7985 H        89        0    0.0000
   1364 H         161.0035  103.6802  217.5487 H        89        0    0.0000
   1365 H         163.8152  103.9696  218.6992 H        89        0    0.0000
   1366 H         161.5477  105.9885  218.6222 H        89        0    0.0000
   1367 H         163.1120  106.2362  219.3883 H        89        0    0.0000
   1368 H         161.5759  104.3564  220.6510 H        89        0    0.0000
   1369 H         163.1423  103.5858  220.8201 H        89        0    0.0000
   1370 H         160.5027  102.5246  219.8822 H        89        0    0.0000
   1371 H         160.8750  100.8004  221.2186 H        89        0    0.0000
   1372 H         162.4157  100.4269  220.4557 H        89        0    0.0000
   1373 C         162.5860  101.7223  222.1938 C.3      90        0    0.0000
   1374 C         163.3643  100.6164  222.9209 C.3      90        0    0.0000
   1375 H         163.3039  102.4854  221.8670 H        90        0    0.0000
   1376 H         161.8812  102.2232  222.8678 H        90        0    0.0000
   1377 H         162.6865   99.9095  223.4136 H        90        0    0.0000
   1378 H         163.9233  100.0435  222.1700 H        90        0    0.0000
   1379 C         166.3798   97.9176  224.1364 C.3      91        0    0.0000
   1380 C         165.0443   98.6454  224.1567 C.3      91        0    0.0000
   1381 C         165.4355  100.1051  224.4199 C.3      91        0    0.0000
   1382 C         164.4139  101.1510  223.9559 C.3      91        0    0.0000
   1383 C         166.8569  100.2666  223.8426 C.3      91        0    0.0000
   1384 C         167.2779   98.8714  223.3459 C.3      91        0    0.0000
   1385 C         168.7632   98.5486  223.5270 C.3      91        0    0.0000
   1386 H         166.7523   97.7790  225.1587 H        91        0    0.0000
   1387 H         166.3030   96.9338  223.6633 H        91        0    0.0000
   1388 H         164.5441   98.5195  223.1903 H        91        0    0.0000
   1389 H         164.3778   98.2546  224.9319 H        91        0    0.0000
   1390 H         165.5247  100.2220  225.5103 H        91        0    0.0000
   1391 H         163.8781  101.5376  224.8310 H        91        0    0.0000
   1392 H         164.9470  102.0009  223.5135 H        91        0    0.0000
   1393 H         167.5256  100.6240  224.6355 H        91        0    0.0000
   1394 H         166.9098  100.9985  223.0297 H        91        0    0.0000
   1395 H         167.0125   98.7915  222.2816 H        91        0    0.0000
   1396 H         169.1690   98.1073  222.6090 H        91        0    0.0000
   1397 H         169.3174   99.4787  223.7005 H        91        0    0.0000
   1398 C         169.0229   97.5834  224.7175 C.3      92        0    0.0000
   1399 C         170.4127   97.7354  225.3521 C.3      92        0    0.0000
   1400 H         168.9390   96.5630  224.3221 H        92        0    0.0000
   1401 H         168.2287   97.6963  225.4647 H        92        0    0.0000
   1402 H         171.1551   97.3472  224.6431 H        92        0    0.0000
   1403 H         170.6613   98.7899  225.5201 H        92        0    0.0000
   1404 C         170.5959   96.9306  226.6853 C.3      93        0    0.0000
   1405 C         171.2156   97.7482  227.8275 C.3      93        0    0.0000
   1406 H         171.2702   96.0943  226.4604 H        93        0    0.0000
   1407 H         169.6381   96.4891  226.9848 H        93        0    0.0000
   1408 H         172.3017   97.5914  227.8081 H        93        0    0.0000
   1409 H         171.0514   98.8226  227.6837 H        93        0    0.0000
   1410 C         168.5513   94.4555  228.5290 C.3      94        0    0.0000
   1411 C         169.7521   95.2819  228.0709 C.3      94        0    0.0000
   1412 C         170.4274   95.8217  229.3436 C.3      94        0    0.0000
   1413 C         170.7227   97.3247  229.2545 C.3      94        0    0.0000
   1414 C         169.4736   95.4376  230.4853 C.3      94        0    0.0000
   1415 C         168.7886   94.1499  230.0102 C.3      94        0    0.0000
   1416 C         169.6344   92.8779  230.2020 C.3      94        0    0.0000
   1417 H         167.6429   95.0628  228.4265 H        94        0    0.0000
   1418 H         168.4115   93.5588  227.9173 H        94        0    0.0000
   1419 H         169.4309   96.0767  227.3887 H        94        0    0.0000
   1420 H         170.4585   94.6503  227.5195 H        94        0    0.0000
   1421 H         171.3733   95.2785  229.4794 H        94        0    0.0000
   1422 H         171.4704   97.6110  230.0033 H        94        0    0.0000
   1423 H         169.8105   97.8873  229.4870 H        94        0    0.0000
   1424 H         170.0001   95.3182  231.4372 H        94        0    0.0000
   1425 H         168.7139   96.2176  230.6256 H        94        0    0.0000
   1426 H         167.8251   94.0237  230.5204 H        94        0    0.0000
   1427 H         170.0485   92.5287  229.2500 H        94        0    0.0000
   1428 H         168.9933   92.0718  230.5791 H        94        0    0.0000
   1429 C         169.6253   96.0095  230.2660 C.3      95        0    0.0000
   1430 C         171.0004   95.5835  230.7874 C.3      95        0    0.0000
   1431 C         170.7511   94.5011  231.8435 C.3      95        0    0.0000
   1432 C         170.7877   93.0919  231.2227 C.3      95        0    0.0000
   1433 C         169.3849   94.9114  232.4076 C.3      95        0    0.0000
   1434 C         168.5814   95.3453  231.1790 C.3      95        0    0.0000
   1435 C         167.3950   96.2441  231.5459 C.3      95        0    0.0000
   1436 H         169.5503   97.1029  230.2708 H        95        0    0.0000
   1437 H         169.4866   95.6793  229.2302 H        95        0    0.0000
   1438 H         171.4819   96.4480  231.2617 H        95        0    0.0000
   1439 H         171.6601   95.2536  229.9784 H        95        0    0.0000
   1440 H         171.5157   94.5643  232.6284 H        95        0    0.0000
   1441 H         170.6853   92.3447  232.0189 H        95        0    0.0000
   1442 H         171.7486   92.8978  230.7341 H        95        0    0.0000
   1443 H         169.5150   95.7573  233.0952 H        95        0    0.0000
   1444 H         168.8825   94.1132  232.9621 H        95        0    0.0000
   1445 H         168.2044   94.4441  230.6753 H        95        0    0.0000
   1446 H         166.6423   95.6737  232.1024 H        95        0    0.0000
   1447 H         166.9106   96.5999  230.6289 H        95        0    0.0000
   1448 C         171.1278   98.4148  234.0172 C.3      96        0    0.0000
   1449 C         169.8355   98.8318  233.3320 C.3      96        0    0.0000
   1450 C         169.3461   97.5369  232.6712 C.3      96        0    0.0000
   1451 C         167.8402   97.4756  232.3858 C.3      96        0    0.0000
   1452 C         169.9024   96.3895  233.5393 C.3      96        0    0.0000
   1453 C         170.7719   97.0550  234.6218 C.3      96        0    0.0000
   1454 C         172.0157   96.2584  235.0231 C.3      96        0    0.0000
   1455 H         171.9352   98.3214  233.2807 H        96        0    0.0000
   1456 H         171.4397   99.1370  234.7779 H        96        0    0.0000
   1457 H         169.1288   99.2065  234.0803 H        96        0    0.0000
   1458 H         170.0002   99.6279  232.5991 H        96        0    0.0000
   1459 H         169.8492   97.4642  231.6954 H        96        0    0.0000
   1460 H         167.2977   97.4651  233.3386 H        96        0    0.0000
   1461 H         167.5373   98.3901  231.8621 H        96        0    0.0000
   1462 H         170.4993   95.7206  232.9068 H        96        0    0.0000
   1463 H         169.1179   95.7772  233.9961 H        96        0    0.0000
   1464 H         170.1442   97.2262  235.5085 H        96        0    0.0000
   1465 H         172.6339   96.0527  234.1412 H        96        0    0.0000
   1466 H         172.6287   96.8619  235.7031 H        96        0    0.0000
   1467 H         171.7690   95.3179  235.5159 H        96        0    0.0000
   1468 H         132.1685  188.0743  239.9544 H         0        0    0.0000
@<TRIPOS>BOND
     1     1     2      1
     2     1     6      1
     3     1     8      1
     4     1     9      1
     5     2     3      1
     6     2    10      1
     7     2    11      1
     8     3     4      1
     9     3     5      1
    10     3    12      1
    11     4    13      1
    12     4    14      1
    13     4  1468      H
    14     5     6      1
    15     5    15      1
    16     5    16      1
    17     6     7      1
    18     6    17      1
    19     7    18      1
    20     7    19      1
    21     7    23      1
    22    20    21      1
    23    20    25      1
    24    20    27      1
    25    20    28      1
    26    21    22      1
    27    21    29      1
    28    21    30      1
    29    22    23      1
    30    22    24      1
    31    22    31      1
    32    23    32      1
    33    23    33      1
    34    24    25      1
    35    24    34      1
    36    24    35      1
    37    25    26      1
    38    25    36      1
    39    26    37      1
    40    26    38      1
    41    26    39      1
    42    39    40      1
    43    39    41      1
    44    39    42      1
    45    40    43      1
    46    40    44      1
    47    40    48      1
    48    45    46      1
    49    45    50      1
    50    45    52      1
    51    45    53      1
    52    46    47      1
    53    46    54      1
    54    46    55      1
    55    47    48      1
    56    47    49      1
    57    47    56      1
    58    48    57      1
    59    48    58      1
    60    49    50      1
    61    49    59      1
    62    49    60      1
    63    50    51      1
    64    50    61      1
    65    51    62      1
    66    51    63      1
    67    51    64      1
    68    64    65      1
    69    64    66      1
    70    64    67      1
    71    65    68      1
    72    65    69      1
    73    65    73      1
    74    70    71      1
    75    70    75      1
    76    70    77      1
    77    70    78      1
    78    71    72      1
    79    71    79      1
    80    71    80      1
    81    72    73      1
    82    72    74      1
    83    72    81      1
    84    73    82      1
    85    73    83      1
    86    74    75      1
    87    74    84      1
    88    74    85      1
    89    75    76      1
    90    75    86      1
    91    76    87      1
    92    76    88      1
    93    76    92      1
    94    89    90      1
    95    89    94      1
    96    89    96      1
    97    89    97      1
    98    90    91      1
    99    90    98      1
   100    90    99      1
   101    91    92      1
   102    91    93      1
   103    91   100      1
   104    92   101      1
   105    92   102      1
   106    93    94      1
   107    93   103      1
   108    93   104      1
   109    94    95      1
   110    94   105      1
   111    95   106      1
   112    95   107      1
   113    95   108      1
   114   108   109      1
   115   108   110      1
   116   108   111      1
   117   109   112      1
   118   109   113      1
   119   109   114      1
   120   114   115      1
   121   114   116      1
   122   114   117      1
   123   115   118      1
   124   115   119      1
   125   115   120      1
   126   120   121      1
   127   120   122      1
   128   120   123      1
   129   121   124      1
   130   121   125      1
   131   121   126      1
   132   126   127      1
   133   126   128      1
   134   126   129      1
   135   127   130      1
   136   127   131      1
   137   127   135      1
   138   132   133      1
   139   132   137      1
   140   132   139      1
   141   132   140      1
   142   133   134      1
   143   133   141      1
   144   133   142      1
   145   134   135      1
   146   134   136      1
   147   134   143      1
   148   135   144      1
   149   135   145      1
   150   136   137      1
   151   136   146      1
   152   136   147      1
   153   137   138      1
   154   137   148      1
   155   138   149      1
   156   138   150      1
   157   138   154      1
   158   151   152      1
   159   151   156      1
   160   151   158      1
   161   151   159      1
   162   152   153      1
   163   152   160      1
   164   152   161      1
   165   153   154      1
   166   153   155      1
   167   153   162      1
   168   154   163      1
   169   154   164      1
   170   155   156      1
   171   155   165      1
   172   155   166      1
   173   156   157      1
   174   156   167      1
   175   157   168      1
   176   157   169      1
   177   157   170      1
   178   170   171      1
   179   170   172      1
   180   170   173      1
   181   171   174      1
   182   171   175      1
   183   171   179      1
   184   176   177      1
   185   176   181      1
   186   176   183      1
   187   176   184      1
   188   177   178      1
   189   177   185      1
   190   177   186      1
   191   178   179      1
   192   178   180      1
   193   178   187      1
   194   179   188      1
   195   179   189      1
   196   180   181      1
   197   180   190      1
   198   180   191      1
   199   181   182      1
   200   181   192      1
   201   182   193      1
   202   182   194      1
   203   182   195      1
   204   195   196      1
   205   195   197      1
   206   195   198      1
   207   196   199      1
   208   196   200      1
   209   196   204      1
   210   201   202      1
   211   201   206      1
   212   201   208      1
   213   201   209      1
   214   202   203      1
   215   202   210      1
   216   202   211      1
   217   203   204      1
   218   203   205      1
   219   203   212      1
   220   204   213      1
   221   204   214      1
   222   205   206      1
   223   205   215      1
   224   205   216      1
   225   206   207      1
   226   206   217      1
   227   207   218      1
   228   207   219      1
   229   207   223      1
   230   220   221      1
   231   220   225      1
   232   220   227      1
   233   220   228      1
   234   221   222      1
   235   221   229      1
   236   221   230      1
   237   222   223      1
   238   222   224      1
   239   222   231      1
   240   223   232      1
   241   223   233      1
   242   224   225      1
   243   224   234      1
   244   224   235      1
   245   225   226      1
   246   225   236      1
   247   226   237      1
   248   226   238      1
   249   226   242      1
   250   239   240      1
   251   239   244      1
   252   239   246      1
   253   239   247      1
   254   240   241      1
   255   240   248      1
   256   240   249      1
   257   241   242      1
   258   241   243      1
   259   241   250      1
   260   242   251      1
   261   242   252      1
   262   243   244      1
   263   243   253      1
   264   243   254      1
   265   244   245      1
   266   244   255      1
   267   245   256      1
   268   245   257      1
   269   245   261      1
   270   258   259      1
   271   258   263      1
   272   258   265      1
   273   258   266      1
   274   259   260      1
   275   259   267      1
   276   259   268      1
   277   260   261      1
   278   260   262      1
   279   260   269      1
   280   261   270      1
   281   261   271      1
   282   262   263      1
   283   262   272      1
   284   262   273      1
   285   263   264      1
   286   263   274      1
   287   264   275      1
   288   264   276      1
   289   264   277      1
   290   277   278      1
   291   277   279      1
   292   277   280      1
   293   278   281      1
   294   278   282      1
   295   278   286      1
   296   283   284      1
   297   283   288      1
   298   283   290      1
   299   283   291      1
   300   284   285      1
   301   284   292      1
   302   284   293      1
   303   285   286      1
   304   285   287      1
   305   285   294      1
   306   286   295      1
   307   286   296      1
   308   287   288      1
   309   287   297      1
   310   287   298      1
   311   288   289      1
   312   288   299      1
   313   289   300      1
   314   289   301      1
   315   289   305      1
   316   302   303      1
   317   302   307      1
   318   302   309      1
   319   302   310      1
   320   303   304      1
   321   303   311      1
   322   303   312      1
   323   304   305      1
   324   304   306      1
   325   304   313      1
   326   305   314      1
   327   305   315      1
   328   306   307      1
   329   306   316      1
   330   306   317      1
   331   307   308      1
   332   307   318      1
   333   308   319      1
   334   308   320      1
   335   308   324      1
   336   321   322      1
   337   321   326      1
   338   321   328      1
   339   321   329      1
   340   322   323      1
   341   322   330      1
   342   322   331      1
   343   323   324      1
   344   323   325      1
   345   323   332      1
   346   324   333      1
   347   324   334      1
   348   325   326      1
   349   325   335      1
   350   325   336      1
   351   326   327      1
   352   326   337      1
   353   327   338      1
   354   327   339      1
   355   327   343      1
   356   340   341      1
   357   340   345      1
   358   340   347      1
   359   340   348      1
   360   341   342      1
   361   341   349      1
   362   341   350      1
   363   342   343      1
   364   342   344      1
   365   342   351      1
   366   343   352      1
   367   343   353      1
   368   344   345      1
   369   344   354      1
   370   344   355      1
   371   345   346      1
   372   345   356      1
   373   346   357      1
   374   346   358      1
   375   346   362      1
   376   359   360      1
   377   359   364      1
   378   359   366      1
   379   359   367      1
   380   360   361      1
   381   360   368      1
   382   360   369      1
   383   361   362      1
   384   361   363      1
   385   361   370      1
   386   362   371      1
   387   362   372      1
   388   363   364      1
   389   363   373      1
   390   363   374      1
   391   364   365      1
   392   364   375      1
   393   365   376      1
   394   365   377      1
   395   365   381      1
   396   378   379      1
   397   378   383      1
   398   378   385      1
   399   378   386      1
   400   379   380      1
   401   379   387      1
   402   379   388      1
   403   380   381      1
   404   380   382      1
   405   380   389      1
   406   381   390      1
   407   381   391      1
   408   382   383      1
   409   382   392      1
   410   382   393      1
   411   383   384      1
   412   383   394      1
   413   384   395      1
   414   384   396      1
   415   384   397      1
   416   397   398      1
   417   397   399      1
   418   397   400      1
   419   398   401      1
   420   398   402      1
   421   398   406      1
   422   403   404      1
   423   403   408      1
   424   403   410      1
   425   403   411      1
   426   404   405      1
   427   404   412      1
   428   404   413      1
   429   405   406      1
   430   405   407      1
   431   405   414      1
   432   406   415      1
   433   406   416      1
   434   407   408      1
   435   407   417      1
   436   407   418      1
   437   408   409      1
   438   408   419      1
   439   409   420      1
   440   409   421      1
   441   409   425      1
   442   422   423      1
   443   422   427      1
   444   422   429      1
   445   422   430      1
   446   423   424      1
   447   423   431      1
   448   423   432      1
   449   424   425      1
   450   424   426      1
   451   424   433      1
   452   425   434      1
   453   425   435      1
   454   426   427      1
   455   426   436      1
   456   426   437      1
   457   427   428      1
   458   427   438      1
   459   428   439      1
   460   428   440      1
   461   428   444      1
   462   441   442      1
   463   441   446      1
   464   441   448      1
   465   441   449      1
   466   442   443      1
   467   442   450      1
   468   442   451      1
   469   443   444      1
   470   443   445      1
   471   443   452      1
   472   444   453      1
   473   444   454      1
   474   445   446      1
   475   445   455      1
   476   445   456      1
   477   446   447      1
   478   446   457      1
   479   447   458      1
   480   447   459      1
   481   447   463      1
   482   460   461      1
   483   460   465      1
   484   460   467      1
   485   460   468      1
   486   461   462      1
   487   461   469      1
   488   461   470      1
   489   462   463      1
   490   462   464      1
   491   462   471      1
   492   463   472      1
   493   463   473      1
   494   464   465      1
   495   464   474      1
   496   464   475      1
   497   465   466      1
   498   465   476      1
   499   466   477      1
   500   466   478      1
   501   466   479      1
   502   479   480      1
   503   479   481      1
   504   479   482      1
   505   480   483      1
   506   480   484      1
   507   480   488      1
   508   485   486      1
   509   485   490      1
   510   485   492      1
   511   485   493      1
   512   486   487      1
   513   486   494      1
   514   486   495      1
   515   487   488      1
   516   487   489      1
   517   487   496      1
   518   488   497      1
   519   488   498      1
   520   489   490      1
   521   489   499      1
   522   489   500      1
   523   490   491      1
   524   490   501      1
   525   491   502      1
   526   491   503      1
   527   491   507      1
   528   504   505      1
   529   504   509      1
   530   504   511      1
   531   504   512      1
   532   505   506      1
   533   505   513      1
   534   505   514      1
   535   506   507      1
   536   506   508      1
   537   506   515      1
   538   507   516      1
   539   507   517      1
   540   508   509      1
   541   508   518      1
   542   508   519      1
   543   509   510      1
   544   509   520      1
   545   510   521      1
   546   510   522      1
   547   510   526      1
   548   523   524      1
   549   523   528      1
   550   523   530      1
   551   523   531      1
   552   524   525      1
   553   524   532      1
   554   524   533      1
   555   525   526      1
   556   525   527      1
   557   525   534      1
   558   526   535      1
   559   526   536      1
   560   527   528      1
   561   527   537      1
   562   527   538      1
   563   528   529      1
   564   528   539      1
   565   529   540      1
   566   529   541      1
   567   529   545      1
   568   542   543      1
   569   542   547      1
   570   542   549      1
   571   542   550      1
   572   543   544      1
   573   543   551      1
   574   543   552      1
   575   544   545      1
   576   544   546      1
   577   544   553      1
   578   545   554      1
   579   545   555      1
   580   546   547      1
   581   546   556      1
   582   546   557      1
   583   547   548      1
   584   547   558      1
   585   548   559      1
   586   548   560      1
   587   548   564      1
   588   561   562      1
   589   561   566      1
   590   561   568      1
   591   561   569      1
   592   562   563      1
   593   562   570      1
   594   562   571      1
   595   563   564      1
   596   563   565      1
   597   563   572      1
   598   564   573      1
   599   564   574      1
   600   565   566      1
   601   565   575      1
   602   565   576      1
   603   566   567      1
   604   566   577      1
   605   567   578      1
   606   567   579      1
   607   567   583      1
   608   580   581      1
   609   580   585      1
   610   580   587      1
   611   580   588      1
   612   581   582      1
   613   581   589      1
   614   581   590      1
   615   582   583      1
   616   582   584      1
   617   582   591      1
   618   583   592      1
   619   583   593      1
   620   584   585      1
   621   584   594      1
   622   584   595      1
   623   585   586      1
   624   585   596      1
   625   586   597      1
   626   586   598      1
   627   586   602      1
   628   599   600      1
   629   599   604      1
   630   599   606      1
   631   599   607      1
   632   600   601      1
   633   600   608      1
   634   600   609      1
   635   601   602      1
   636   601   603      1
   637   601   610      1
   638   602   611      1
   639   602   612      1
   640   603   604      1
   641   603   613      1
   642   603   614      1
   643   604   605      1
   644   604   615      1
   645   605   616      1
   646   605   617      1
   647   605   621      1
   648   618   619      1
   649   618   623      1
   650   618   625      1
   651   618   626      1
   652   619   620      1
   653   619   627      1
   654   619   628      1
   655   620   621      1
   656   620   622      1
   657   620   629      1
   658   621   630      1
   659   621   631      1
   660   622   623      1
   661   622   632      1
   662   622   633      1
   663   623   624      1
   664   623   634      1
   665   624   635      1
   666   624   636      1
   667   624   640      1
   668   637   638      1
   669   637   642      1
   670   637   644      1
   671   637   645      1
   672   638   639      1
   673   638   646      1
   674   638   647      1
   675   639   640      1
   676   639   641      1
   677   639   648      1
   678   640   649      1
   679   640   650      1
   680   641   642      1
   681   641   651      1
   682   641   652      1
   683   642   643      1
   684   642   653      1
   685   643   654      1
   686   643   655      1
   687   643   659      1
   688   656   657      1
   689   656   661      1
   690   656   663      1
   691   656   664      1
   692   657   658      1
   693   657   665      1
   694   657   666      1
   695   658   659      1
   696   658   660      1
   697   658   667      1
   698   659   668      1
   699   659   669      1
   700   660   661      1
   701   660   670      1
   702   660   671      1
   703   661   662      1
   704   661   672      1
   705   662   673      1
   706   662   674      1
   707   662   675      1
   708   675   676      1
   709   675   677      1
   710   675   678      1
   711   676   679      1
   712   676   680      1
   713   676   684      1
   714   681   682      1
   715   681   686      1
   716   681   688      1
   717   681   689      1
   718   682   683      1
   719   682   690      1
   720   682   691      1
   721   683   684      1
   722   683   685      1
   723   683   692      1
   724   684   693      1
   725   684   694      1
   726   685   686      1
   727   685   695      1
   728   685   696      1
   729   686   687      1
   730   686   697      1
   731   687   698      1
   732   687   699      1
   733   687   703      1
   734   700   701      1
   735   700   705      1
   736   700   707      1
   737   700   708      1
   738   701   702      1
   739   701   709      1
   740   701   710      1
   741   702   703      1
   742   702   704      1
   743   702   711      1
   744   703   712      1
   745   703   713      1
   746   704   705      1
   747   704   714      1
   748   704   715      1
   749   705   706      1
   750   705   716      1
   751   706   717      1
   752   706   718      1
   753   706   722      1
   754   719   720      1
   755   719   724      1
   756   719   726      1
   757   719   727      1
   758   720   721      1
   759   720   728      1
   760   720   729      1
   761   721   722      1
   762   721   723      1
   763   721   730      1
   764   722   731      1
   765   722   732      1
   766   723   724      1
   767   723   733      1
   768   723   734      1
   769   724   725      1
   770   724   735      1
   771   725   736      1
   772   725   737      1
   773   725   741      1
   774   738   739      1
   775   738   743      1
   776   738   745      1
   777   738   746      1
   778   739   740      1
   779   739   747      1
   780   739   748      1
   781   740   741      1
   782   740   742      1
   783   740   749      1
   784   741   750      1
   785   741   751      1
   786   742   743      1
   787   742   752      1
   788   742   753      1
   789   743   744      1
   790   743   754      1
   791   744   755      1
   792   744   756      1
   793   744   760      1
   794   757   758      1
   795   757   762      1
   796   757   764      1
   797   757   765      1
   798   758   759      1
   799   758   766      1
   800   758   767      1
   801   759   760      1
   802   759   761      1
   803   759   768      1
   804   760   769      1
   805   760   770      1
   806   761   762      1
   807   761   771      1
   808   761   772      1
   809   762   763      1
   810   762   773      1
   811   763   774      1
   812   763   775      1
   813   763   779      1
   814   776   777      1
   815   776   781      1
   816   776   783      1
   817   776   784      1
   818   777   778      1
   819   777   785      1
   820   777   786      1
   821   778   779      1
   822   778   780      1
   823   778   787      1
   824   779   788      1
   825   779   789      1
   826   780   781      1
   827   780   790      1
   828   780   791      1
   829   781   782      1
   830   781   792      1
   831   782   793      1
   832   782   794      1
   833   782   795      1
   834   795   796      1
   835   795   797      1
   836   795   798      1
   837   796   799      1
   838   796   800      1
   839   796   804      1
   840   801   802      1
   841   801   806      1
   842   801   808      1
   843   801   809      1
   844   802   803      1
   845   802   810      1
   846   802   811      1
   847   803   804      1
   848   803   805      1
   849   803   812      1
   850   804   813      1
   851   804   814      1
   852   805   806      1
   853   805   815      1
   854   805   816      1
   855   806   807      1
   856   806   817      1
   857   807   818      1
   858   807   819      1
   859   807   823      1
   860   820   821      1
   861   820   825      1
   862   820   827      1
   863   820   828      1
   864   821   822      1
   865   821   829      1
   866   821   830      1
   867   822   823      1
   868   822   824      1
   869   822   831      1
   870   823   832      1
   871   823   833      1
   872   824   825      1
   873   824   834      1
   874   824   835      1
   875   825   826      1
   876   825   836      1
   877   826   837      1
   878   826   838      1
   879   826   839      1
   880   839   840      1
   881   839   841      1
   882   839   842      1
   883   840   843      1
   884   840   844      1
   885   840   848      1
   886   845   846      1
   887   845   850      1
   888   845   852      1
   889   845   853      1
   890   846   847      1
   891   846   854      1
   892   846   855      1
   893   847   848      1
   894   847   849      1
   895   847   856      1
   896   848   857      1
   897   848   858      1
   898   849   850      1
   899   849   859      1
   900   849   860      1
   901   850   851      1
   902   850   861      1
   903   851   862      1
   904   851   863      1
   905   851   867      1
   906   864   865      1
   907   864   869      1
   908   864   871      1
   909   864   872      1
   910   865   866      1
   911   865   873      1
   912   865   874      1
   913   866   867      1
   914   866   868      1
   915   866   875      1
   916   867   876      1
   917   867   877      1
   918   868   869      1
   919   868   878      1
   920   868   879      1
   921   869   870      1
   922   869   880      1
   923   870   881      1
   924   870   882      1
   925   870   883      1
   926   883   884      1
   927   883   885      1
   928   883   886      1
   929   884   887      1
   930   884   888      1
   931   884   892      1
   932   889   890      1
   933   889   894      1
   934   889   896      1
   935   889   897      1
   936   890   891      1
   937   890   898      1
   938   890   899      1
   939   891   892      1
   940   891   893      1
   941   891   900      1
   942   892   901      1
   943   892   902      1
   944   893   894      1
   945   893   903      1
   946   893   904      1
   947   894   895      1
   948   894   905      1
   949   895   906      1
   950   895   907      1
   951   895   908      1
   952   908   909      1
   953   908   910      1
   954   908   911      1
   955   909   912      1
   956   909   913      1
   957   909   917      1
   958   914   915      1
   959   914   919      1
   960   914   921      1
   961   914   922      1
   962   915   916      1
   963   915   923      1
   964   915   924      1
   965   916   917      1
   966   916   918      1
   967   916   925      1
   968   917   926      1
   969   917   927      1
   970   918   919      1
   971   918   928      1
   972   918   929      1
   973   919   920      1
   974   919   930      1
   975   920   931      1
   976   920   932      1
   977   920   936      1
   978   933   934      1
   979   933   938      1
   980   933   940      1
   981   933   941      1
   982   934   935      1
   983   934   942      1
   984   934   943      1
   985   935   936      1
   986   935   937      1
   987   935   944      1
   988   936   945      1
   989   936   946      1
   990   937   938      1
   991   937   947      1
   992   937   948      1
   993   938   939      1
   994   938   949      1
   995   939   950      1
   996   939   951      1
   997   939   955      1
   998   952   953      1
   999   952   957      1
  1000   952   959      1
  1001   952   960      1
  1002   953   954      1
  1003   953   961      1
  1004   953   962      1
  1005   954   955      1
  1006   954   956      1
  1007   954   963      1
  1008   955   964      1
  1009   955   965      1
  1010   956   957      1
  1011   956   966      1
  1012   956   967      1
  1013   957   958      1
  1014   957   968      1
  1015   958   969      1
  1016   958   970      1
  1017   958   971      1
  1018   971   972      1
  1019   971   973      1
  1020   971   974      1
  1021   972   975      1
  1022   972   976      1
  1023   972   980      1
  1024   977   978      1
  1025   977   982      1
  1026   977   984      1
  1027   977   985      1
  1028   978   979      1
  1029   978   986      1
  1030   978   987      1
  1031   979   980      1
  1032   979   981      1
  1033   979   988      1
  1034   980   989      1
  1035   980   990      1
  1036   981   982      1
  1037   981   991      1
  1038   981   992      1
  1039   982   983      1
  1040   982   993      1
  1041   983   994      1
  1042   983   995      1
  1043   983   999      1
  1044   996   997      1
  1045   996  1001      1
  1046   996  1003      1
  1047   996  1004      1
  1048   997   998      1
  1049   997  1005      1
  1050   997  1006      1
  1051   998   999      1
  1052   998  1000      1
  1053   998  1007      1
  1054   999  1008      1
  1055   999  1009      1
  1056  1000  1001      1
  1057  1000  1010      1
  1058  1000  1011      1
  1059  1001  1002      1
  1060  1001  1012      1
  1061  1002  1013      1
  1062  1002  1014      1
  1063  1002  1015      1
  1064  1015  1016      1
  1065  1015  1017      1
  1066  1015  1018      1
  1067  1016  1019      1
  1068  1016  1020      1
  1069  1016  1024      1
  1070  1021  1022      1
  1071  1021  1026      1
  1072  1021  1028      1
  1073  1021  1029      1
  1074  1022  1023      1
  1075  1022  1030      1
  1076  1022  1031      1
  1077  1023  1024      1
  1078  1023  1025      1
  1079  1023  1032      1
  1080  1024  1033      1
  1081  1024  1034      1
  1082  1025  1026      1
  1083  1025  1035      1
  1084  1025  1036      1
  1085  1026  1027      1
  1086  1026  1037      1
  1087  1027  1038      1
  1088  1027  1039      1
  1089  1027  1043      1
  1090  1040  1041      1
  1091  1040  1045      1
  1092  1040  1047      1
  1093  1040  1048      1
  1094  1041  1042      1
  1095  1041  1049      1
  1096  1041  1050      1
  1097  1042  1043      1
  1098  1042  1044      1
  1099  1042  1051      1
  1100  1043  1052      1
  1101  1043  1053      1
  1102  1044  1045      1
  1103  1044  1054      1
  1104  1044  1055      1
  1105  1045  1046      1
  1106  1045  1056      1
  1107  1046  1057      1
  1108  1046  1058      1
  1109  1046  1059      1
  1110  1059  1060      1
  1111  1059  1061      1
  1112  1059  1062      1
  1113  1060  1063      1
  1114  1060  1064      1
  1115  1060  1068      1
  1116  1065  1066      1
  1117  1065  1070      1
  1118  1065  1072      1
  1119  1065  1073      1
  1120  1066  1067      1
  1121  1066  1074      1
  1122  1066  1075      1
  1123  1067  1068      1
  1124  1067  1069      1
  1125  1067  1076      1
  1126  1068  1077      1
  1127  1068  1078      1
  1128  1069  1070      1
  1129  1069  1079      1
  1130  1069  1080      1
  1131  1070  1071      1
  1132  1070  1081      1
  1133  1071  1082      1
  1134  1071  1083      1
  1135  1071  1087      1
  1136  1084  1085      1
  1137  1084  1089      1
  1138  1084  1091      1
  1139  1084  1092      1
  1140  1085  1086      1
  1141  1085  1093      1
  1142  1085  1094      1
  1143  1086  1087      1
  1144  1086  1088      1
  1145  1086  1095      1
  1146  1087  1096      1
  1147  1087  1097      1
  1148  1088  1089      1
  1149  1088  1098      1
  1150  1088  1099      1
  1151  1089  1090      1
  1152  1089  1100      1
  1153  1090  1101      1
  1154  1090  1102      1
  1155  1090  1103      1
  1156  1103  1104      1
  1157  1103  1105      1
  1158  1103  1106      1
  1159  1104  1107      1
  1160  1104  1108      1
  1161  1104  1109      1
  1162  1109  1110      1
  1163  1109  1111      1
  1164  1109  1112      1
  1165  1110  1113      1
  1166  1110  1114      1
  1167  1110  1118      1
  1168  1115  1116      1
  1169  1115  1120      1
  1170  1115  1122      1
  1171  1115  1123      1
  1172  1116  1117      1
  1173  1116  1124      1
  1174  1116  1125      1
  1175  1117  1118      1
  1176  1117  1119      1
  1177  1117  1126      1
  1178  1118  1127      1
  1179  1118  1128      1
  1180  1119  1120      1
  1181  1119  1129      1
  1182  1119  1130      1
  1183  1120  1121      1
  1184  1120  1131      1
  1185  1121  1132      1
  1186  1121  1133      1
  1187  1121  1137      1
  1188  1134  1135      1
  1189  1134  1139      1
  1190  1134  1141      1
  1191  1134  1142      1
  1192  1135  1136      1
  1193  1135  1143      1
  1194  1135  1144      1
  1195  1136  1137      1
  1196  1136  1138      1
  1197  1136  1145      1
  1198  1137  1146      1
  1199  1137  1147      1
  1200  1138  1139      1
  1201  1138  1148      1
  1202  1138  1149      1
  1203  1139  1140      1
  1204  1139  1150      1
  1205  1140  1151      1
  1206  1140  1152      1
  1207  1140  1153      1
  1208  1153  1154      1
  1209  1153  1155      1
  1210  1153  1156      1
  1211  1154  1157      1
  1212  1154  1158      1
  1213  1154  1162      1
  1214  1159  1160      1
  1215  1159  1164      1
  1216  1159  1166      1
  1217  1159  1167      1
  1218  1160  1161      1
  1219  1160  1168      1
  1220  1160  1169      1
  1221  1161  1162      1
  1222  1161  1163      1
  1223  1161  1170      1
  1224  1162  1171      1
  1225  1162  1172      1
  1226  1163  1164      1
  1227  1163  1173      1
  1228  1163  1174      1
  1229  1164  1165      1
  1230  1164  1175      1
  1231  1165  1176      1
  1232  1165  1177      1
  1233  1165  1181      1
  1234  1178  1179      1
  1235  1178  1183      1
  1236  1178  1185      1
  1237  1178  1186      1
  1238  1179  1180      1
  1239  1179  1187      1
  1240  1179  1188      1
  1241  1180  1181      1
  1242  1180  1182      1
  1243  1180  1189      1
  1244  1181  1190      1
  1245  1181  1191      1
  1246  1182  1183      1
  1247  1182  1192      1
  1248  1182  1193      1
  1249  1183  1184      1
  1250  1183  1194      1
  1251  1184  1195      1
  1252  1184  1196      1
  1253  1184  1200      1
  1254  1197  1198      1
  1255  1197  1202      1
  1256  1197  1204      1
  1257  1197  1205      1
  1258  1198  1199      1
  1259  1198  1206      1
  1260  1198  1207      1
  1261  1199  1200      1
  1262  1199  1201      1
  1263  1199  1208      1
  1264  1200  1209      1
  1265  1200  1210      1
  1266  1201  1202      1
  1267  1201  1211      1
  1268  1201  1212      1
  1269  1202  1203      1
  1270  1202  1213      1
  1271  1203  1214      1
  1272  1203  1215      1
  1273  1203  1219      1
  1274  1216  1217      1
  1275  1216  1221      1
  1276  1216  1223      1
  1277  1216  1224      1
  1278  1217  1218      1
  1279  1217  1225      1
  1280  1217  1226      1
  1281  1218  1219      1
  1282  1218  1220      1
  1283  1218  1227      1
  1284  1219  1228      1
  1285  1219  1229      1
  1286  1220  1221      1
  1287  1220  1230      1
  1288  1220  1231      1
  1289  1221  1222      1
  1290  1221  1232      1
  1291  1222  1233      1
  1292  1222  1234      1
  1293  1222  1235      1
  1294  1235  1236      1
  1295  1235  1237      1
  1296  1235  1238      1
  1297  1236  1239      1
  1298  1236  1240      1
  1299  1236  1244      1
  1300  1241  1242      1
  1301  1241  1246      1
  1302  1241  1248      1
  1303  1241  1249      1
  1304  1242  1243      1
  1305  1242  1250      1
  1306  1242  1251      1
  1307  1243  1244      1
  1308  1243  1245      1
  1309  1243  1252      1
  1310  1244  1253      1
  1311  1244  1254      1
  1312  1245  1246      1
  1313  1245  1255      1
  1314  1245  1256      1
  1315  1246  1247      1
  1316  1246  1257      1
  1317  1247  1258      1
  1318  1247  1259      1
  1319  1247  1260      1
  1320  1260  1261      1
  1321  1260  1262      1
  1322  1260  1263      1
  1323  1261  1264      1
  1324  1261  1265      1
  1325  1261  1269      1
  1326  1266  1267      1
  1327  1266  1271      1
  1328  1266  1273      1
  1329  1266  1274      1
  1330  1267  1268      1
  1331  1267  1275      1
  1332  1267  1276      1
  1333  1268  1269      1
  1334  1268  1270      1
  1335  1268  1277      1
  1336  1269  1278      1
  1337  1269  1279      1
  1338  1270  1271      1
  1339  1270  1280      1
  1340  1270  1281      1
  1341  1271  1272      1
  1342  1271  1282      1
  1343  1272  1283      1
  1344  1272  1284      1
  1345  1272  1288      1
  1346  1285  1286      1
  1347  1285  1290      1
  1348  1285  1292      1
  1349  1285  1293      1
  1350  1286  1287      1
  1351  1286  1294      1
  1352  1286  1295      1
  1353  1287  1288      1
  1354  1287  1289      1
  1355  1287  1296      1
  1356  1288  1297      1
  1357  1288  1298      1
  1358  1289  1290      1
  1359  1289  1299      1
  1360  1289  1300      1
  1361  1290  1291      1
  1362  1290  1301      1
  1363  1291  1302      1
  1364  1291  1303      1
  1365  1291  1307      1
  1366  1304  1305      1
  1367  1304  1309      1
  1368  1304  1311      1
  1369  1304  1312      1
  1370  1305  1306      1
  1371  1305  1313      1
  1372  1305  1314      1
  1373  1306  1307      1
  1374  1306  1308      1
  1375  1306  1315      1
  1376  1307  1316      1
  1377  1307  1317      1
  1378  1308  1309      1
  1379  1308  1318      1
  1380  1308  1319      1
  1381  1309  1310      1
  1382  1309  1320      1
  1383  1310  1321      1
  1384  1310  1322      1
  1385  1310  1326      1
  1386  1323  1324      1
  1387  1323  1328      1
  1388  1323  1330      1
  1389  1323  1331      1
  1390  1324  1325      1
  1391  1324  1332      1
  1392  1324  1333      1
  1393  1325  1326      1
  1394  1325  1327      1
  1395  1325  1334      1
  1396  1326  1335      1
  1397  1326  1336      1
  1398  1327  1328      1
  1399  1327  1337      1
  1400  1327  1338      1
  1401  1328  1329      1
  1402  1328  1339      1
  1403  1329  1340      1
  1404  1329  1341      1
  1405  1329  1342      1
  1406  1342  1343      1
  1407  1342  1344      1
  1408  1342  1345      1
  1409  1343  1346      1
  1410  1343  1347      1
  1411  1343  1348      1
  1412  1348  1349      1
  1413  1348  1350      1
  1414  1348  1351      1
  1415  1349  1352      1
  1416  1349  1353      1
  1417  1349  1357      1
  1418  1354  1355      1
  1419  1354  1359      1
  1420  1354  1361      1
  1421  1354  1362      1
  1422  1355  1356      1
  1423  1355  1363      1
  1424  1355  1364      1
  1425  1356  1357      1
  1426  1356  1358      1
  1427  1356  1365      1
  1428  1357  1366      1
  1429  1357  1367      1
  1430  1358  1359      1
  1431  1358  1368      1
  1432  1358  1369      1
  1433  1359  1360      1
  1434  1359  1370      1
  1435  1360  1371      1
  1436  1360  1372      1
  1437  1360  1373      1
  1438  1373  1374      1
  1439  1373  1375      1
  1440  1373  1376      1
  1441  1374  1377      1
  1442  1374  1378      1
  1443  1374  1382      1
  1444  1379  1380      1
  1445  1379  1384      1
  1446  1379  1386      1
  1447  1379  1387      1
  1448  1380  1381      1
  1449  1380  1388      1
  1450  1380  1389      1
  1451  1381  1382      1
  1452  1381  1383      1
  1453  1381  1390      1
  1454  1382  1391      1
  1455  1382  1392      1
  1456  1383  1384      1
  1457  1383  1393      1
  1458  1383  1394      1
  1459  1384  1385      1
  1460  1384  1395      1
  1461  1385  1396      1
  1462  1385  1397      1
  1463  1385  1398      1
  1464  1398  1399      1
  1465  1398  1400      1
  1466  1398  1401      1
  1467  1399  1402      1
  1468  1399  1403      1
  1469  1399  1404      1
  1470  1404  1405      1
  1471  1404  1406      1
  1472  1404  1407      1
  1473  1405  1408      1
  1474  1405  1409      1
  1475  1405  1413      1
  1476  1410  1411      1
  1477  1410  1415      1
  1478  1410  1417      1
  1479  1410  1418      1
  1480  1411  1412      1
  1481  1411  1419      1
  1482  1411  1420      1
  1483  1412  1413      1
  1484  1412  1414      1
  1485  1412  1421      1
  1486  1413  1422      1
  1487  1413  1423      1
  1488  1414  1415      1
  1489  1414  1424      1
  1490  1414  1425      1
  1491  1415  1416      1
  1492  1415  1426      1
  1493  1416  1427      1
  1494  1416  1428      1
  1495  1416  1432      1
  1496  1429  1430      1
  1497  1429  1434      1
  1498  1429  1436      1
  1499  1429  1437      1
  1500  1430  1431      1
  1501  1430  1438      1
  1502  1430  1439      1
  1503  1431  1432      1
  1504  1431  1433      1
  1505  1431  1440      1
  1506  1432  1441      1
  1507  1432  1442      1
  1508  1433  1434      1
  1509  1433  1443      1
  1510  1433  1444      1
  1511  1434  1435      1
  1512  1434  1445      1
  1513  1435  1446      1
  1514  1435  1447      1
  1515  1435  1451      1
  1516  1448  1449      1
  1517  1448  1453      1
  1518  1448  1455      1
  1519  1448  1456      1
  1520  1449  1450      1
  1521  1449  1457      1
  1522  1449  1458      1
  1523  1450  1451      1
  1524  1450  1452      1
  1525  1450  1459      1
  1526  1451  1460      1
  1527  1451  1461      1
  1528  1452  1453      1
  1529  1452  1462      1
  1530  1452  1463      1
  1531  1453  1454      1
  1532  1453  1464      1
  1533  1454  1465      1
  1534  1454  1466      1
  1535  1454  1467      H
