###
### Created by PolyChef-cpp17 on Wed Feb 26 21:14:13 2025
###

@<TRIPOS>MOLECULE
NO_INFO
1525 1595 1 0 0
SMALL
USER_CHARGES


@<TRIPOS>ATOM
      1 C         162.3681  185.4221   57.0138 C.3       0        0    0.0000
      2 C         163.4240  185.0393   55.9863 C.3       0        0    0.0000
      3 C         163.6855  183.5623   56.2989 C.3       0        0    0.0000
      4 C         164.9760  182.9841   55.7104 C.3       0        0    0.0000
      5 C         163.5392  183.4392   57.8283 C.3       0        0    0.0000
      6 C         162.8776  184.7511   58.2936 C.3       0        0    0.0000
      7 C         161.8458  184.6082   59.4166 C.3       0        0    0.0000
      8 H         162.2805  186.5073   57.1253 H         0        0    0.0000
      9 H         161.3922  185.0320   56.7044 H         0        0    0.0000
     10 H         163.0694  185.1862   54.9614 H         0        0    0.0000
     11 H         164.3188  185.6553   56.1282 H         0        0    0.0000
     12 H         162.8563  182.9908   55.8552 H         0        0    0.0000
     13 H         165.7584  183.0003   56.4783 H         0        0    0.0000
     14 H         164.8114  181.9317   55.4505 H         0        0    0.0000
     15 H         164.4998  183.3124   58.3390 H         0        0    0.0000
     16 H         162.9423  182.5528   58.0687 H         0        0    0.0000
     17 H         163.6832  185.3883   58.6888 H         0        0    0.0000
     18 H         161.8077  185.5428   59.9889 H         0        0    0.0000
     19 H         160.8521  184.4688   58.9747 H         0        0    0.0000
     20 C         164.9117  182.9154   62.7963 C.3       1        0    0.0000
     21 C         163.9977  183.9291   62.1035 C.3       1        0    0.0000
     22 C         163.6172  183.3203   60.7420 C.3       1        0    0.0000
     23 C         162.1266  183.4312   60.3984 C.3       1        0    0.0000
     24 C         164.0892  181.8653   60.8290 C.3       1        0    0.0000
     25 C         165.3388  181.9174   61.7145 C.3       1        0    0.0000
     26 C         166.5911  182.3659   60.9375 C.3       1        0    0.0000
     27 H         165.7499  183.4027   63.3033 H         1        0    0.0000
     28 H         164.3340  182.3868   63.5654 H         1        0    0.0000
     29 H         163.1267  184.1403   62.7337 H         1        0    0.0000
     30 H         164.5257  184.8779   61.9524 H         1        0    0.0000
     31 H         164.2061  183.8241   59.9622 H         1        0    0.0000
     32 H         161.7919  182.4987   59.9285 H         1        0    0.0000
     33 H         161.5319  183.5587   61.3103 H         1        0    0.0000
     34 H         164.2861  181.4383   59.8403 H         1        0    0.0000
     35 H         163.3241  181.2438   61.3122 H         1        0    0.0000
     36 H         165.5178  180.9291   62.1567 H         1        0    0.0000
     37 H         167.1965  183.0609   61.5298 H         1        0    0.0000
     38 H         166.2847  182.9025   60.0318 H         1        0    0.0000
     39 C         167.4693  181.1547   60.5088 C.3       2        0    0.0000
     40 C         168.9258  181.2399   60.9872 C.3       2        0    0.0000
     41 H         167.0159  180.2607   60.9557 H         2        0    0.0000
     42 H         167.4135  181.0244   59.4217 H         2        0    0.0000
     43 H         169.6168  180.8427   60.2344 H         2        0    0.0000
     44 H         169.1797  182.2996   61.1182 H         2        0    0.0000
     45 C         165.5814  181.1371   63.0149 C.3       3        0    0.0000
     46 C         166.9755  181.7580   62.8981 C.3       3        0    0.0000
     47 C         167.9798  180.6646   63.3043 C.3       3        0    0.0000
     48 C         169.1858  180.5385   62.3653 C.3       3        0    0.0000
     49 C         167.1455  179.3807   63.3581 C.3       3        0    0.0000
     50 C         165.7571  179.8416   63.8146 C.3       3        0    0.0000
     51 C         165.6807  180.0556   65.3383 C.3       3        0    0.0000
     52 H         164.8610  181.8334   63.4548 H         3        0    0.0000
     53 H         165.2184  180.8922   62.0085 H         3        0    0.0000
     54 H         167.1373  182.1272   61.8793 H         3        0    0.0000
     55 H         167.0682  182.6174   63.5724 H         3        0    0.0000
     56 H         168.3352  180.8834   64.3214 H         3        0    0.0000
     57 H         170.0608  181.0049   62.8335 H         3        0    0.0000
     58 H         169.4364  179.4838   62.2034 H         3        0    0.0000
     59 H         167.5860  178.6330   64.0255 H         3        0    0.0000
     60 H         167.0715  178.9311   62.3594 H         3        0    0.0000
     61 H         165.0056  179.1015   63.5116 H         3        0    0.0000
     62 H         164.9534  180.8345   65.5925 H         3        0    0.0000
     63 H         166.6552  180.3969   65.7072 H         3        0    0.0000
     64 C         165.3120  178.7426   66.0881 C.3       4        0    0.0000
     65 C         164.4161  178.9563   67.3165 C.3       4        0    0.0000
     66 H         164.7663  178.1126   65.3740 H         4        0    0.0000
     67 H         166.2265  178.1982   66.3511 H         4        0    0.0000
     68 H         164.9268  179.5489   68.0845 H         4        0    0.0000
     69 H         163.5402  179.5382   67.0020 H         4        0    0.0000
     70 C         166.2605  175.8441   69.3270 C.3       5        0    0.0000
     71 C         166.1626  176.5309   67.9621 C.3       5        0    0.0000
     72 C         164.7026  176.4046   67.5131 C.3       5        0    0.0000
     73 C         163.8736  177.6276   67.9482 C.3       5        0    0.0000
     74 C         164.2783  175.0839   68.1680 C.3       5        0    0.0000
     75 C         164.9209  175.1249   69.5568 C.3       5        0    0.0000
     76 C         165.0476  173.7310   70.1820 C.3       5        0    0.0000
     77 H         167.1123  175.1547   69.3340 H         5        0    0.0000
     78 H         166.4341  176.5824   70.1183 H         5        0    0.0000
     79 H         166.8073  175.9983   67.2514 H         5        0    0.0000
     80 H         166.5148  177.5668   67.9994 H         5        0    0.0000
     81 H         164.6562  176.3135   66.4203 H         5        0    0.0000
     82 H         163.9178  177.7229   69.0399 H         5        0    0.0000
     83 H         162.8169  177.5043   67.6881 H         5        0    0.0000
     84 H         164.6816  174.2442   67.5870 H         5        0    0.0000
     85 H         163.1937  174.9518   68.2245 H         5        0    0.0000
     86 H         164.2979  175.7535   70.2086 H         5        0    0.0000
     87 H         165.9838  173.6500   70.7465 H         5        0    0.0000
     88 H         165.0896  172.9777   69.3865 H         5        0    0.0000
     89 C         163.4934  174.6153   74.6709 C.3       6        0    0.0000
     90 C         163.8105  174.8738   73.1957 C.3       6        0    0.0000
     91 C         164.2142  173.5195   72.5982 C.3       6        0    0.0000
     92 C         163.8471  173.4046   71.1161 C.3       6        0    0.0000
     93 C         163.5077  172.5117   73.5110 C.3       6        0    0.0000
     94 C         163.7188  173.1155   74.9034 C.3       6        0    0.0000
     95 C         162.7997  172.5504   75.9899 C.3       6        0    0.0000
     96 H         164.1319  175.2149   75.3286 H         6        0    0.0000
     97 H         162.4551  174.9017   74.8767 H         6        0    0.0000
     98 H         164.6148  175.6086   73.0821 H         6        0    0.0000
     99 H         162.9234  175.2836   72.6980 H         6        0    0.0000
    100 H         165.3008  173.4015   72.7201 H         6        0    0.0000
    101 H         163.0304  174.1007   70.8904 H         6        0    0.0000
    102 H         163.4748  172.3978   70.8935 H         6        0    0.0000
    103 H         163.9428  171.5106   73.4290 H         6        0    0.0000
    104 H         162.4394  172.4446   73.2696 H         6        0    0.0000
    105 H         164.7691  172.9678   75.1942 H         6        0    0.0000
    106 H         161.7521  172.6152   75.6734 H         6        0    0.0000
    107 H         162.8942  173.1596   76.8968 H         6        0    0.0000
    108 C         163.1419  171.0777   76.3462 C.3       7        0    0.0000
    109 C         163.2453  170.8086   77.8543 C.3       7        0    0.0000
    110 H         162.3300  170.4577   75.9446 H         7        0    0.0000
    111 H         164.0562  170.7739   75.8232 H         7        0    0.0000
    112 H         163.1155  171.7301   78.4337 H         7        0    0.0000
    113 H         162.4219  170.1408   78.1382 H         7        0    0.0000
    114 C         164.5744  170.0966   78.2847 C.3       8        0    0.0000
    115 C         165.1531  170.6056   79.6126 C.3       8        0    0.0000
    116 H         165.3101  170.2945   77.4946 H         8        0    0.0000
    117 H         164.4219  169.0111   78.3060 H         8        0    0.0000
    118 H         165.3762  171.6742   79.4994 H         8        0    0.0000
    119 H         164.4211  170.5226   80.4246 H         8        0    0.0000
    120 C         166.4915  169.9060   80.0342 C.3       9        0    0.0000
    121 C         166.9717  170.2764   81.4447 C.3       9        0    0.0000
    122 H         166.3047  168.8247   80.0112 H         9        0    0.0000
    123 H         167.2654  170.1063   79.2839 H         9        0    0.0000
    124 H         167.9923  169.9191   81.6253 H         9        0    0.0000
    125 H         167.0053  171.3711   81.5164 H         9        0    0.0000
    126 C         166.0262  169.7765   82.5914 C.3      10        0    0.0000
    127 C         166.7304  169.5873   83.9426 C.3      10        0    0.0000
    128 H         165.6309  168.8030   82.2742 H        10        0    0.0000
    129 H         165.1659  170.4501   82.6808 H        10        0    0.0000
    130 H         167.3573  168.6888   83.8769 H        10        0    0.0000
    131 H         167.4039  170.4240   84.1620 H        10        0    0.0000
    132 C         162.1788  169.8865   83.9548 C.3      11        0    0.0000
    133 C         163.6688  170.1736   83.8322 C.3      11        0    0.0000
    134 C         164.2975  169.1084   84.7365 C.3      11        0    0.0000
    135 C         165.7502  169.3683   85.1467 C.3      11        0    0.0000
    136 C         163.3019  168.9234   85.8984 C.3      11        0    0.0000
    137 C         162.0034  169.6249   85.4543 C.3      11        0    0.0000
    138 C         160.7029  168.9195   85.8509 C.3      11        0    0.0000
    139 H         161.5705  170.7286   83.6103 H        11        0    0.0000
    140 H         161.9199  169.0101   83.3505 H        11        0    0.0000
    141 H         164.0170  170.0925   82.7979 H        11        0    0.0000
    142 H         163.8800  171.1895   84.1838 H        11        0    0.0000
    143 H         164.2973  168.1664   84.1674 H        11        0    0.0000
    144 H         165.7864  170.2515   85.7955 H        11        0    0.0000
    145 H         166.1105  168.5230   85.7449 H        11        0    0.0000
    146 H         163.6548  169.3663   86.8360 H        11        0    0.0000
    147 H         163.1628  167.8548   86.0947 H        11        0    0.0000
    148 H         161.9896  170.6073   85.9499 H        11        0    0.0000
    149 H         159.8594  169.5970   85.6728 H        11        0    0.0000
    150 H         160.5527  168.0512   85.1983 H        11        0    0.0000
    151 C         164.1205  169.8622   87.8170 C.3      12        0    0.0000
    152 C         163.1865  168.7523   87.3277 C.3      12        0    0.0000
    153 C         161.8861  168.8996   88.1285 C.3      12        0    0.0000
    154 C         160.6587  168.4443   87.3343 C.3      12        0    0.0000
    155 C         161.8819  170.3820   88.5163 C.3      12        0    0.0000
    156 C         163.3456  170.6339   88.8932 C.3      12        0    0.0000
    157 C         163.7444  172.1111   88.9510 C.3      12        0    0.0000
    158 H         165.0519  169.4520   88.2219 H        12        0    0.0000
    159 H         164.3902  170.5102   86.9744 H        12        0    0.0000
    160 H         163.6295  167.7618   87.4768 H        12        0    0.0000
    161 H         163.0108  168.8710   86.2517 H        12        0    0.0000
    162 H         161.9777  168.2977   89.0444 H        12        0    0.0000
    163 H         159.7537  168.8487   87.8032 H        12        0    0.0000
    164 H         160.5695  167.3521   87.3651 H        12        0    0.0000
    165 H         161.2038  170.5844   89.3514 H        12        0    0.0000
    166 H         161.5812  171.0093   87.6677 H        12        0    0.0000
    167 H         163.5442  170.1591   89.8651 H        12        0    0.0000
    168 H         163.0430  172.7176   88.3662 H        12        0    0.0000
    169 H         164.7317  172.2377   88.4908 H        12        0    0.0000
    170 C         163.8051  172.6503   90.4065 C.3      13        0    0.0000
    171 C         162.7948  173.7685   90.7002 C.3      13        0    0.0000
    172 H         163.5781  171.8041   91.0676 H        13        0    0.0000
    173 H         164.8286  172.9656   90.6413 H        13        0    0.0000
    174 H         163.0548  174.6910   90.1678 H        13        0    0.0000
    175 H         161.8157  173.4515   90.3189 H        13        0    0.0000
    176 C         163.9956  171.0642   93.8048 C.3      14        0    0.0000
    177 C         164.0305  171.9848   92.5858 C.3      14        0    0.0000
    178 C         163.6818  173.3962   93.0889 C.3      14        0    0.0000
    179 C         162.6087  174.0742   92.2268 C.3      14        0    0.0000
    180 C         163.2728  173.1982   94.5566 C.3      14        0    0.0000
    181 C         164.0765  171.9800   95.0289 C.3      14        0    0.0000
    182 C         165.5344  172.2955   95.4101 C.3      14        0    0.0000
    183 H         163.0379  170.5282   93.8173 H        14        0    0.0000
    184 H         164.7879  170.3097   93.7736 H        14        0    0.0000
    185 H         163.3406  171.6242   91.8150 H        14        0    0.0000
    186 H         165.0336  171.9896   92.1432 H        14        0    0.0000
    187 H         164.5993  174.0008   93.0593 H        14        0    0.0000
    188 H         162.6178  175.1581   92.3900 H        14        0    0.0000
    189 H         161.6185  173.7162   92.5335 H        14        0    0.0000
    190 H         163.4565  174.0938   95.1583 H        14        0    0.0000
    191 H         162.2012  172.9701   94.6259 H        14        0    0.0000
    192 H         163.5751  171.5033   95.8808 H        14        0    0.0000
    193 H         165.8822  173.2139   94.9252 H        14        0    0.0000
    194 H         166.1839  171.4873   95.0524 H        14        0    0.0000
    195 C         165.7223  172.4175   96.9488 C.3      15        0    0.0000
    196 C         167.0759  171.8991   97.4551 C.3      15        0    0.0000
    197 H         165.6539  173.4855   97.1926 H        15        0    0.0000
    198 H         164.8888  171.9247   97.4630 H        15        0    0.0000
    199 H         167.3056  170.9111   97.0390 H        15        0    0.0000
    200 H         167.8576  172.5805   97.0954 H        15        0    0.0000
    201 C         165.6423  174.7798  100.5999 C.3      16        0    0.0000
    202 C         165.8246  173.9882   99.3058 C.3      16        0    0.0000
    203 C         165.9976  172.5142   99.7112 C.3      16        0    0.0000
    204 C         167.1974  171.8556   99.0178 C.3      16        0    0.0000
    205 C         166.0968  172.5393  101.2443 C.3      16        0    0.0000
    206 C         165.2658  173.7552  101.6731 C.3      16        0    0.0000
    207 C         163.7479  173.5001  101.7108 C.3      16        0    0.0000
    208 H         166.5984  175.2480  100.8671 H        16        0    0.0000
    209 H         164.9081  175.5842  100.4904 H        16        0    0.0000
    210 H         166.6764  174.3769   98.7371 H        16        0    0.0000
    211 H         164.9379  174.0929   98.6696 H        16        0    0.0000
    212 H         165.0814  171.9770   99.4281 H        16        0    0.0000
    213 H         167.3068  170.8169   99.3506 H        16        0    0.0000
    214 H         168.1160  172.3794   99.3085 H        16        0    0.0000
    215 H         165.7516  171.6029  101.6932 H        16        0    0.0000
    216 H         167.1387  172.6887  101.5561 H        16        0    0.0000
    217 H         165.5969  174.1117  102.6569 H        16        0    0.0000
    218 H         163.3167  173.5185  100.7041 H        16        0    0.0000
    219 H         163.2607  174.3047  102.2749 H        16        0    0.0000
    220 C         166.1012  171.5756  104.9689 C.3      17        0    0.0000
    221 C         165.4552  172.4320  103.8767 C.3      17        0    0.0000
    222 C         164.6302  171.4726  103.0089 C.3      17        0    0.0000
    223 C         163.3995  172.1507  102.4004 C.3      17        0    0.0000
    224 C         164.3153  170.3194  103.9674 C.3      17        0    0.0000
    225 C         165.6397  170.1344  104.7155 C.3      17        0    0.0000
    226 C         165.5339  169.3213  106.0086 C.3      17        0    0.0000
    227 H         167.1938  171.6488  104.9410 H        17        0    0.0000
    228 H         165.7767  171.9337  105.9533 H        17        0    0.0000
    229 H         166.2099  172.9529  103.2777 H        17        0    0.0000
    230 H         164.8226  173.1985  104.3402 H        17        0    0.0000
    231 H         165.2786  171.0939  102.2054 H        17        0    0.0000
    232 H         162.6641  172.3426  103.1908 H        17        0    0.0000
    233 H         162.9176  171.4842  101.6755 H        17        0    0.0000
    234 H         164.0179  169.4122  103.4320 H        17        0    0.0000
    235 H         163.5083  170.5924  104.6589 H        17        0    0.0000
    236 H         166.3622  169.6576  104.0371 H        17        0    0.0000
    237 H         165.1935  169.9595  106.8324 H        17        0    0.0000
    238 H         166.5282  168.9510  106.2857 H        17        0    0.0000
    239 C         162.8115  167.7920  109.1154 C.3      18        0    0.0000
    240 C         164.0088  168.3835  108.3675 C.3      18        0    0.0000
    241 C         164.3281  167.4167  107.2132 C.3      18        0    0.0000
    242 C         164.5765  168.1064  105.8661 C.3      18        0    0.0000
    243 C         163.1281  166.4652  107.1690 C.3      18        0    0.0000
    244 C         162.6770  166.3451  108.6286 C.3      18        0    0.0000
    245 C         163.5411  165.3536  109.4308 C.3      18        0    0.0000
    246 H         162.9225  167.8845  110.2000 H        18        0    0.0000
    247 H         161.9092  168.3509  108.8357 H        18        0    0.0000
    248 H         163.7720  169.3957  108.0218 H        18        0    0.0000
    249 H         164.8742  168.4638  109.0358 H        18        0    0.0000
    250 H         165.2173  166.8319  107.4890 H        18        0    0.0000
    251 H         165.0255  167.3895  105.1684 H        18        0    0.0000
    252 H         163.6286  168.4312  105.4217 H        18        0    0.0000
    253 H         163.3868  165.4994  106.7230 H        18        0    0.0000
    254 H         162.3174  166.9003  106.5702 H        18        0    0.0000
    255 H         161.6274  166.0267  108.6643 H        18        0    0.0000
    256 H         164.3900  165.8605  109.9028 H        18        0    0.0000
    257 H         163.9574  164.6008  108.7509 H        18        0    0.0000
    258 C         164.7488  162.1074  112.3463 C.3      19        0    0.0000
    259 C         164.6914  163.0990  111.1817 C.3      19        0    0.0000
    260 C         163.2167  163.1854  110.7494 C.3      19        0    0.0000
    261 C         162.7114  164.6154  110.5210 C.3      19        0    0.0000
    262 C         162.4493  162.4665  111.8636 C.3      19        0    0.0000
    263 C         163.4054  161.3698  112.3449 C.3      19        0    0.0000
    264 C         163.3938  160.1348  111.4242 C.3      19        0    0.0000
    265 H         165.6165  161.4447  112.2747 H        19        0    0.0000
    266 H         164.8497  162.6691  113.2838 H        19        0    0.0000
    267 H         165.1012  164.0664  111.4925 H        19        0    0.0000
    268 H         165.3039  162.7415  110.3457 H        19        0    0.0000
    269 H         163.0945  162.6068  109.8226 H        19        0    0.0000
    270 H         161.6638  164.5832  110.1988 H        19        0    0.0000
    271 H         162.7385  165.1851  111.4570 H        19        0    0.0000
    272 H         161.4909  162.0709  111.5121 H        19        0    0.0000
    273 H         162.2396  163.1575  112.6903 H        19        0    0.0000
    274 H         163.1352  161.0676  113.3647 H        19        0    0.0000
    275 H         164.3931  159.6931  111.3419 H        19        0    0.0000
    276 H         163.0950  160.4371  110.4135 H        19        0    0.0000
    277 C         162.3921  159.0527  111.9219 C.3      20        0    0.0000
    278 C         160.9917  159.1672  111.3029 C.3      20        0    0.0000
    279 H         162.8111  158.0788  111.6383 H        20        0    0.0000
    280 H         162.3465  159.0673  113.0172 H        20        0    0.0000
    281 H         160.9597  159.9436  110.5295 H        20        0    0.0000
    282 H         160.7615  158.2173  110.8036 H        20        0    0.0000
    283 C         158.7477  156.2860  113.9166 C.3      21        0    0.0000
    284 C         159.8017  156.9591  113.0388 C.3      21        0    0.0000
    285 C         159.9044  158.4188  113.5140 C.3      21        0    0.0000
    286 C         159.8510  159.4164  112.3495 C.3      21        0    0.0000
    287 C         158.7631  158.5806  114.5299 C.3      21        0    0.0000
    288 C         158.5809  157.1865  115.1433 C.3      21        0    0.0000
    289 C         159.6001  156.8441  116.2452 C.3      21        0    0.0000
    290 H         157.7993  156.2469  113.3655 H        21        0    0.0000
    291 H         159.0182  155.2555  114.1676 H        21        0    0.0000
    292 H         159.5295  156.8731  111.9811 H        21        0    0.0000
    293 H         160.7714  156.4629  113.1631 H        21        0    0.0000
    294 H         160.8619  158.5350  114.0412 H        21        0    0.0000
    295 H         159.9131  160.4443  112.7253 H        21        0    0.0000
    296 H         158.8854  159.3243  111.8379 H        21        0    0.0000
    297 H         158.9826  159.3522  115.2742 H        21        0    0.0000
    298 H         157.8364  158.8716  114.0184 H        21        0    0.0000
    299 H         157.5650  157.0798  115.5446 H        21        0    0.0000
    300 H         160.5077  157.4497  116.1491 H        21        0    0.0000
    301 H         159.9094  155.7973  116.1381 H        21        0    0.0000
    302 C         158.8649  153.7524  119.3250 C.3      22        0    0.0000
    303 C         159.4546  154.5640  118.1726 C.3      22        0    0.0000
    304 C         159.5760  156.0143  118.6713 C.3      22        0    0.0000
    305 C         159.0032  157.0255  117.6695 C.3      22        0    0.0000
    306 C         158.8719  156.0185  120.0370 C.3      22        0    0.0000
    307 C         159.0659  154.5988  120.5847 C.3      22        0    0.0000
    308 C         160.4448  154.3523  121.2237 C.3      22        0    0.0000
    309 H         157.7902  153.6158  119.1494 H        22        0    0.0000
    310 H         159.3101  152.7550  119.3961 H        22        0    0.0000
    311 H         158.8267  154.4712  117.2796 H        22        0    0.0000
    312 H         160.4477  154.1814  117.9090 H        22        0    0.0000
    313 H         160.6428  156.2291  118.8264 H        22        0    0.0000
    314 H         159.1826  158.0495  118.0172 H        22        0    0.0000
    315 H         157.9157  156.8980  117.6081 H        22        0    0.0000
    316 H         159.2683  156.7930  120.7007 H        22        0    0.0000
    317 H         157.7985  156.2112  119.9114 H        22        0    0.0000
    318 H         158.2816  154.3651  121.3160 H        22        0    0.0000
    319 H         161.2474  154.7831  120.6156 H        22        0    0.0000
    320 H         160.6328  153.2728  121.2710 H        22        0    0.0000
    321 C         156.9906  155.9421  123.1293 C.3      23        0    0.0000
    322 C         158.1427  155.7473  122.1406 C.3      23        0    0.0000
    323 C         159.4440  155.9712  122.9316 C.3      23        0    0.0000
    324 C         160.5279  154.9182  122.6696 C.3      23        0    0.0000
    325 C         159.0000  155.9991  124.3976 C.3      23        0    0.0000
    326 C         157.5978  156.6166  124.3643 C.3      23        0    0.0000
    327 C         157.6348  158.1530  124.2583 C.3      23        0    0.0000
    328 H         156.1616  156.5004  122.6840 H        23        0    0.0000
    329 H         156.5988  154.9570  123.4136 H        23        0    0.0000
    330 H         158.0850  154.7506  121.6895 H        23        0    0.0000
    331 H         158.0729  156.4765  121.3250 H        23        0    0.0000
    332 H         159.8369  156.9655  122.6751 H        23        0    0.0000
    333 H         161.5163  155.3719  122.8094 H        23        0    0.0000
    334 H         160.4490  154.0992  123.3937 H        23        0    0.0000
    335 H         159.6974  156.5616  125.0268 H        23        0    0.0000
    336 H         158.9409  154.9788  124.7983 H        23        0    0.0000
    337 H         157.0462  156.3260  125.2674 H        23        0    0.0000
    338 H         156.8315  158.5246  123.6126 H        23        0    0.0000
    339 H         158.5813  158.4634  123.7999 H        23        0    0.0000
    340 C         159.5315  156.2181  127.5529 C.3      24        0    0.0000
    341 C         159.3391  157.1080  126.3329 C.3      24        0    0.0000
    342 C         158.2314  158.0672  126.7810 C.3      24        0    0.0000
    343 C         157.5280  158.8310  125.6549 C.3      24        0    0.0000
    344 C         157.3121  157.2288  127.6905 C.3      24        0    0.0000
    345 C         158.0936  155.9373  128.0013 C.3      24        0    0.0000
    346 C         157.9426  155.4013  129.4282 C.3      24        0    0.0000
    347 H         160.0726  155.2990  127.3073 H        24        0    0.0000
    348 H         160.1038  156.7560  128.3167 H        24        0    0.0000
    349 H         160.2582  157.6379  126.0644 H        24        0    0.0000
    350 H         159.0345  156.4988  125.4748 H        24        0    0.0000
    351 H         158.7059  158.8245  127.4232 H        24        0    0.0000
    352 H         156.4679  158.9479  125.9095 H        24        0    0.0000
    353 H         157.9494  159.8411  125.5893 H        24        0    0.0000
    354 H         156.3591  156.9744  127.2142 H        24        0    0.0000
    355 H         157.0642  157.8032  128.5896 H        24        0    0.0000
    356 H         157.6969  155.1592  127.3317 H        24        0    0.0000
    357 H         158.8473  154.8439  129.6988 H        24        0    0.0000
    358 H         157.8737  156.2466  130.1232 H        24        0    0.0000
    359 C         156.1458  154.0570  133.3456 C.3      25        0    0.0000
    360 C         156.5689  154.8844  132.1415 C.3      25        0    0.0000
    361 C         156.6774  153.8398  131.0289 C.3      25        0    0.0000
    362 C         156.7046  154.4785  129.6381 C.3      25        0    0.0000
    363 C         155.4803  152.9061  131.2853 C.3      25        0    0.0000
    364 C         155.1014  153.0928  132.7690 C.3      25        0    0.0000
    365 C         154.8964  151.7971  133.5640 C.3      25        0    0.0000
    366 H         155.7303  154.6801  134.1439 H        25        0    0.0000
    367 H         157.0159  153.5293  133.7511 H        25        0    0.0000
    368 H         155.8028  155.6337  131.9076 H        25        0    0.0000
    369 H         157.5158  155.4049  132.3143 H        25        0    0.0000
    370 H         157.6012  153.2641  131.1861 H        25        0    0.0000
    371 H         156.6982  153.7013  128.8647 H        25        0    0.0000
    372 H         155.7944  155.0727  129.4944 H        25        0    0.0000
    373 H         154.6215  153.1812  130.6604 H        25        0    0.0000
    374 H         155.7362  151.8714  131.0342 H        25        0    0.0000
    375 H         154.1357  153.6200  132.7821 H        25        0    0.0000
    376 H         154.7020  152.0477  134.6135 H        25        0    0.0000
    377 H         155.8274  151.2180  133.5467 H        25        0    0.0000
    378 C         151.2699  150.0761  135.6836 C.3      26        0    0.0000
    379 C         152.6095  150.7385  135.3525 C.3      26        0    0.0000
    380 C         153.1852  149.9852  134.1399 C.3      26        0    0.0000
    381 C         153.7408  150.8973  133.0392 C.3      26        0    0.0000
    382 C         152.0257  149.1141  133.6458 C.3      26        0    0.0000
    383 C         151.2483  148.7502  134.9153 C.3      26        0    0.0000
    384 C         151.9004  147.5902  135.6912 C.3      26        0    0.0000
    385 H         151.1267  149.9637  136.7625 H        26        0    0.0000
    386 H         150.4585  150.7177  135.3167 H        26        0    0.0000
    387 H         152.4618  151.8067  135.1590 H        26        0    0.0000
    388 H         153.2966  150.6554  136.2026 H        26        0    0.0000
    389 H         153.9848  149.3195  134.4952 H        26        0    0.0000
    390 H         154.1250  150.2817  132.2171 H        26        0    0.0000
    391 H         152.9436  151.5231  132.6219 H        26        0    0.0000
    392 H         152.3783  148.2352  133.0964 H        26        0    0.0000
    393 H         151.3770  149.6882  132.9715 H        26        0    0.0000
    394 H         150.2182  148.4794  134.6509 H        26        0    0.0000
    395 H         152.5935  147.9638  136.4530 H        26        0    0.0000
    396 H         152.4884  146.9749  134.9998 H        26        0    0.0000
    397 C         150.8365  146.6770  136.3667 C.3      27        0    0.0000
    398 C         151.1361  145.1759  136.2466 C.3      27        0    0.0000
    399 H         150.8260  146.9379  137.4327 H        27        0    0.0000
    400 H         149.8411  146.9177  135.9754 H        27        0    0.0000
    401 H         151.7930  144.9672  135.3941 H        27        0    0.0000
    402 H         151.6817  144.8646  137.1466 H        27        0    0.0000
    403 C         147.6656  146.6166  138.1790 C.3      28        0    0.0000
    404 C         148.9779  145.8670  138.0073 C.3      28        0    0.0000
    405 C         148.6507  144.8101  136.9447 C.3      28        0    0.0000
    406 C         149.8553  144.2756  136.1596 C.3      28        0    0.0000
    407 C         147.5187  145.4153  136.0892 C.3      28        0    0.0000
    408 C         147.1648  146.7647  136.7408 C.3      28        0    0.0000
    409 C         145.6807  147.1345  136.6816 C.3      28        0    0.0000
    410 H         146.9665  146.0251  138.7826 H        28        0    0.0000
    411 H         147.8078  147.5844  138.6694 H        28        0    0.0000
    412 H         149.7555  146.5621  137.6729 H        28        0    0.0000
    413 H         149.3150  145.4135  138.9447 H        28        0    0.0000
    414 H         148.2178  143.9473  137.4726 H        28        0    0.0000
    415 H         150.1048  143.2739  136.5294 H        28        0    0.0000
    416 H         149.5737  144.1604  135.1062 H        28        0    0.0000
    417 H         146.6600  144.7326  136.0991 H        28        0    0.0000
    418 H         147.8006  145.5546  135.0403 H        28        0    0.0000
    419 H         147.7580  147.5493  136.2487 H        28        0    0.0000
    420 H         145.5194  147.9360  135.9510 H        28        0    0.0000
    421 H         145.1054  146.2692  136.3315 H        28        0    0.0000
    422 C         141.5939  148.5733  139.0683 C.3      29        0    0.0000
    423 C         143.0833  148.4939  139.3730 C.3      29        0    0.0000
    424 C         143.6904  148.1239  138.0157 C.3      29        0    0.0000
    425 C         145.1216  147.5799  138.0620 C.3      29        0    0.0000
    426 C         142.6517  147.2048  137.3436 C.3      29        0    0.0000
    427 C         141.3621  147.3502  138.1750 C.3      29        0    0.0000
    428 C         140.0570  147.3595  137.3733 C.3      29        0    0.0000
    429 H         140.9879  148.5382  139.9790 H        29        0    0.0000
    430 H         141.3721  149.5116  138.5481 H        29        0    0.0000
    431 H         143.4739  149.4429  139.7533 H        29        0    0.0000
    432 H         143.2655  147.7231  140.1299 H        29        0    0.0000
    433 H         143.7267  149.0484  137.4199 H        29        0    0.0000
    434 H         145.7834  148.3485  138.4788 H        29        0    0.0000
    435 H         145.1585  146.7262  138.7491 H        29        0    0.0000
    436 H         142.9603  146.1539  137.3275 H        29        0    0.0000
    437 H         142.5203  147.5041  136.2982 H        29        0    0.0000
    438 H         141.3143  146.4744  138.8396 H        29        0    0.0000
    439 H         139.3101  147.9546  137.9120 H        29        0    0.0000
    440 H         140.2290  147.8629  136.4145 H        29        0    0.0000
    441 C         136.2497  146.3547  135.1660 C.3      30        0    0.0000
    442 C         137.6682  146.7827  135.5097 C.3      30        0    0.0000
    443 C         137.9681  145.9859  136.7810 C.3      30        0    0.0000
    444 C         139.4653  145.9448  137.0967 C.3      30        0    0.0000
    445 C         137.3289  144.6115  136.5108 C.3      30        0    0.0000
    446 C         136.2591  144.8426  135.4238 C.3      30        0    0.0000
    447 C         134.8871  144.2178  135.7072 C.3      30        0    0.0000
    448 H         135.9916  146.5910  134.1289 H        30        0    0.0000
    449 H         135.5413  146.8802  135.8154 H        30        0    0.0000
    450 H         138.3546  146.5083  134.6994 H        30        0    0.0000
    451 H         137.7426  147.8625  135.6708 H        30        0    0.0000
    452 H         137.4299  146.4561  137.6170 H        30        0    0.0000
    453 H         139.6515  145.2997  137.9635 H        30        0    0.0000
    454 H         140.0017  145.4980  136.2511 H        30        0    0.0000
    455 H         138.0708  143.8959  136.1348 H        30        0    0.0000
    456 H         136.9192  144.1876  137.4336 H        30        0    0.0000
    457 H         136.6343  144.3629  134.5075 H        30        0    0.0000
    458 H         134.2909  144.2301  134.7871 H        30        0    0.0000
    459 H         134.3551  144.8427  136.4345 H        30        0    0.0000
    460 C         138.3681  141.9424  137.6503 C.3      31        0    0.0000
    461 C         137.3280  142.9753  137.2443 C.3      31        0    0.0000
    462 C         136.3600  142.1805  136.3588 C.3      31        0    0.0000
    463 C         134.9443  142.7611  136.2504 C.3      31        0    0.0000
    464 C         136.4412  140.7226  136.8562 C.3      31        0    0.0000
    465 C         137.5216  140.7044  137.9530 C.3      31        0    0.0000
    466 C         138.3637  139.4271  138.0009 C.3      31        0    0.0000
    467 H         139.0611  141.7551  136.8209 H        31        0    0.0000
    468 H         138.9513  142.2672  138.5174 H        31        0    0.0000
    469 H         136.8376  143.3725  138.1396 H        31        0    0.0000
    470 H         137.7762  143.8171  136.7070 H        31        0    0.0000
    471 H         136.7764  142.1880  135.3404 H        31        0    0.0000
    472 H         134.3455  142.1182  135.5941 H        31        0    0.0000
    473 H         134.4686  142.7318  137.2377 H        31        0    0.0000
    474 H         136.7179  140.0737  136.0159 H        31        0    0.0000
    475 H         135.4888  140.3478  137.2455 H        31        0    0.0000
    476 H         137.0273  140.8543  138.9239 H        31        0    0.0000
    477 H         138.8154  139.2348  137.0205 H        31        0    0.0000
    478 H         139.1913  139.5650  138.7069 H        31        0    0.0000
    479 C         137.5379  138.1843  138.4369 C.3      32        0    0.0000
    480 C         138.1918  137.3622  139.5567 C.3      32        0    0.0000
    481 H         136.5746  138.5580  138.8070 H        32        0    0.0000
    482 H         137.3172  137.5618  137.5618 H        32        0    0.0000
    483 H         138.8373  136.5753  139.1490 H        32        0    0.0000
    484 H         138.8407  138.0315  140.1359 H        32        0    0.0000
    485 C         135.3497  137.9491  143.5153 C.3      33        0    0.0000
    486 C         136.6657  137.9787  142.7396 C.3      33        0    0.0000
    487 C         136.3061  137.8025  141.2542 C.3      33        0    0.0000
    488 C         137.1697  136.7361  140.5676 C.3      33        0    0.0000
    489 C         134.8022  137.4877  141.2505 C.3      33        0    0.0000
    490 C         134.2461  138.2068  142.4861 C.3      33        0    0.0000
    491 C         133.9975  139.7123  142.2811 C.3      33        0    0.0000
    492 H         135.2147  136.9490  143.9469 H        33        0    0.0000
    493 H         135.3450  138.6626  144.3453 H        33        0    0.0000
    494 H         137.3445  137.2023  143.1091 H        33        0    0.0000
    495 H         137.1692  138.9419  142.8842 H        33        0    0.0000
    496 H         136.4633  138.7678  140.7525 H        33        0    0.0000
    497 H         136.5352  136.0088  140.0479 H        33        0    0.0000
    498 H         137.7310  136.1801  141.3281 H        33        0    0.0000
    499 H         134.3200  137.7991  140.3188 H        33        0    0.0000
    500 H         134.6389  136.4077  141.3600 H        33        0    0.0000
    501 H         133.3149  137.7282  142.8151 H        33        0    0.0000
    502 H         133.8416  139.9489  141.2230 H        33        0    0.0000
    503 H         134.8858  140.2714  142.5994 H        33        0    0.0000
    504 C         131.9135  139.6878  146.7429 C.3      34        0    0.0000
    505 C         132.3375  140.5790  145.5855 C.3      34        0    0.0000
    506 C         132.7058  139.5717  144.4943 C.3      34        0    0.0000
    507 C         132.7858  140.2225  143.1112 C.3      34        0    0.0000
    508 C         131.6319  138.4766  144.6296 C.3      34        0    0.0000
    509 C         131.0800  138.5927  146.0654 C.3      34        0    0.0000
    510 C         130.9787  137.2728  146.8403 C.3      34        0    0.0000
    511 H         131.3347  140.2380  147.4914 H        34        0    0.0000
    512 H         132.8028  139.2832  147.2382 H        34        0    0.0000
    513 H         131.5018  141.2158  145.2707 H        34        0    0.0000
    514 H         133.1790  141.2254  145.8531 H        34        0    0.0000
    515 H         133.6802  139.1297  144.7484 H        34        0    0.0000
    516 H         131.8611  140.0371  142.5519 H        34        0    0.0000
    517 H         132.8709  141.3096  143.2267 H        34        0    0.0000
    518 H         130.8118  138.6351  143.9182 H        34        0    0.0000
    519 H         132.0553  137.4908  144.4105 H        34        0    0.0000
    520 H         130.0536  138.9790  145.9766 H        34        0    0.0000
    521 H         131.0798  137.4782  147.9126 H        34        0    0.0000
    522 H         131.8235  136.6314  146.5624 H        34        0    0.0000
    523 C         128.5864  135.0123  149.9033 C.3      35        0    0.0000
    524 C         129.5185  135.9005  149.0751 C.3      35        0    0.0000
    525 C         129.4440  135.3777  147.6346 C.3      35        0    0.0000
    526 C         129.6574  136.4870  146.6010 C.3      35        0    0.0000
    527 C         128.0667  134.7084  147.5778 C.3      35        0    0.0000
    528 C         127.9875  133.9897  148.9287 C.3      35        0    0.0000
    529 C         126.5781  133.5525  149.3372 C.3      35        0    0.0000
    530 H         129.1264  134.5122  150.7145 H        35        0    0.0000
    531 H         127.8073  135.6309  150.3647 H        35        0    0.0000
    532 H         130.5458  135.8648  149.4532 H        35        0    0.0000
    533 H         129.1839  136.9427  149.1416 H        35        0    0.0000
    534 H         130.2154  134.6037  147.5107 H        35        0    0.0000
    535 H         128.8189  137.1921  146.6484 H        35        0    0.0000
    536 H         129.6606  136.0675  145.5881 H        35        0    0.0000
    537 H         127.9853  134.0109  146.7381 H        35        0    0.0000
    538 H         127.2698  135.4567  147.4835 H        35        0    0.0000
    539 H         128.6523  133.1140  148.8997 H        35        0    0.0000
    540 H         126.1534  134.2621  150.0568 H        35        0    0.0000
    541 H         126.6330  132.5821  149.8450 H        35        0    0.0000
    542 C         122.0461  133.6155  149.3840 C.3      36        0    0.0000
    543 C         123.5185  133.3113  149.6226 C.3      36        0    0.0000
    544 C         124.1950  133.9028  148.3816 C.3      36        0    0.0000
    545 C         125.6243  133.4189  148.1184 C.3      36        0    0.0000
    546 C         123.1955  133.6802  147.2296 C.3      36        0    0.0000
    547 C         121.8649  133.2841  147.8990 C.3      36        0    0.0000
    548 C         120.6020  133.8553  147.2472 C.3      36        0    0.0000
    549 H         121.3950  133.0106  150.0227 H        36        0    0.0000
    550 H         121.8469  134.6713  149.5979 H        36        0    0.0000
    551 H         123.8854  133.7670  150.5475 H        36        0    0.0000
    552 H         123.6655  132.2281  149.6954 H        36        0    0.0000
    553 H         124.2575  134.9900  148.5400 H        36        0    0.0000
    554 H         125.5949  132.3677  147.8077 H        36        0    0.0000
    555 H         126.0451  133.9840  147.2783 H        36        0    0.0000
    556 H         123.5089  132.8881  146.5411 H        36        0    0.0000
    557 H         123.1159  134.5949  146.6323 H        36        0    0.0000
    558 H         121.7873  132.1889  147.8239 H        36        0    0.0000
    559 H         120.8847  134.4110  146.3452 H        36        0    0.0000
    560 H         119.9619  133.0276  146.9196 H        36        0    0.0000
    561 C         120.7200  134.2916  151.7262 C.3      37        0    0.0000
    562 C         120.8540  133.7860  150.2877 C.3      37        0    0.0000
    563 C         119.5547  134.1770  149.5609 C.3      37        0    0.0000
    564 C         119.7717  134.7938  148.1736 C.3      37        0    0.0000
    565 C         118.8531  135.1398  150.5242 C.3      37        0    0.0000
    566 C         119.2399  134.6392  151.9199 C.3      37        0    0.0000
    567 C         118.3893  133.4359  152.3691 C.3      37        0    0.0000
    568 H         121.1015  133.5656  152.4503 H        37        0    0.0000
    569 H         121.3210  135.2032  151.8376 H        37        0    0.0000
    570 H         121.7480  134.2147  149.8215 H        37        0    0.0000
    571 H         120.9735  132.6964  150.2759 H        37        0    0.0000
    572 H         118.9304  133.2774  149.4626 H        37        0    0.0000
    573 H         118.7992  134.9771  147.7015 H        37        0    0.0000
    574 H         120.2709  135.7657  148.2605 H        37        0    0.0000
    575 H         117.7701  135.1620  150.3654 H        37        0    0.0000
    576 H         119.2296  136.1615  150.3847 H        37        0    0.0000
    577 H         119.1316  135.4545  152.6464 H        37        0    0.0000
    578 H         118.7557  133.0236  153.3157 H        37        0    0.0000
    579 H         118.4664  132.6367  151.6224 H        37        0    0.0000
    580 C         114.9244  137.0237  152.0715 C.3      38        0    0.0000
    581 C         115.1572  135.5651  151.7083 C.3      38        0    0.0000
    582 C         116.5731  135.2876  152.2291 C.3      38        0    0.0000
    583 C         116.8873  133.8146  152.5196 C.3      38        0    0.0000
    584 C         116.7788  136.2543  153.4135 C.3      38        0    0.0000
    585 C         115.5097  137.1233  153.4817 C.3      38        0    0.0000
    586 C         115.7494  138.5744  153.9059 C.3      38        0    0.0000
    587 H         115.4597  137.6790  151.3736 H        38        0    0.0000
    588 H         113.8629  137.2882  152.0443 H        38        0    0.0000
    589 H         114.4054  134.9403  152.2024 H        38        0    0.0000
    590 H         115.0776  135.3949  150.6300 H        38        0    0.0000
    591 H         117.2729  135.6037  151.4411 H        38        0    0.0000
    592 H         116.5663  133.5771  153.5409 H        38        0    0.0000
    593 H         116.2934  133.1825  151.8488 H        38        0    0.0000
    594 H         117.6692  136.8666  153.2238 H        38        0    0.0000
    595 H         116.9458  135.7385  154.3649 H        38        0    0.0000
    596 H         114.8059  136.6484  154.1808 H        38        0    0.0000
    597 H         115.8002  138.6454  154.9989 H        38        0    0.0000
    598 H         116.7215  138.9077  153.5234 H        38        0    0.0000
    599 C         113.2860  141.1861  156.5227 C.3      39        0    0.0000
    600 C         114.1433  140.1211  155.8533 C.3      39        0    0.0000
    601 C         114.1989  140.5930  154.3966 C.3      39        0    0.0000
    602 C         114.6491  139.5388  153.3807 C.3      39        0    0.0000
    603 C         112.8234  141.2330  154.1247 C.3      39        0    0.0000
    604 C         112.1619  141.4090  155.5056 C.3      39        0    0.0000
    605 C         111.3531  142.6965  155.6911 C.3      39        0    0.0000
    606 H         112.9031  140.8528  157.4923 H        39        0    0.0000
    607 H         113.8806  142.0918  156.6848 H        39        0    0.0000
    608 H         115.1390  140.0559  156.3027 H        39        0    0.0000
    609 H         113.6610  139.1423  155.9513 H        39        0    0.0000
    610 H         114.9397  141.4057  154.3527 H        39        0    0.0000
    611 H         113.7802  138.9463  153.0706 H        39        0    0.0000
    612 H         115.0230  140.0437  152.4821 H        39        0    0.0000
    613 H         112.1833  140.6123  153.4886 H        39        0    0.0000
    614 H         112.9595  142.1814  153.5939 H        39        0    0.0000
    615 H         111.4537  140.5752  155.6251 H        39        0    0.0000
    616 H         111.6817  143.4355  154.9508 H        39        0    0.0000
    617 H         110.2969  142.4895  155.4822 H        39        0    0.0000
    618 C         113.2816  141.8909  160.0145 C.3      40        0    0.0000
    619 C         113.1396  141.9253  158.4909 C.3      40        0    0.0000
    620 C         111.6662  142.2567  158.1936 C.3      40        0    0.0000
    621 C         111.4683  143.3259  157.1120 C.3      40        0    0.0000
    622 C         111.0898  142.6829  159.5476 C.3      40        0    0.0000
    623 C         111.8559  141.8424  160.5747 C.3      40        0    0.0000
    624 C         111.3006  140.4105  160.6938 C.3      40        0    0.0000
    625 H         113.9147  141.0624  160.3460 H        40        0    0.0000
    626 H         113.7666  142.8184  160.3451 H        40        0    0.0000
    627 H         113.8347  142.6579  158.0661 H        40        0    0.0000
    628 H         113.3954  140.9495  158.0618 H        40        0    0.0000
    629 H         111.1603  141.3312  157.8834 H        40        0    0.0000
    630 H         110.5492  143.8868  157.3196 H        40        0    0.0000
    631 H         112.2926  144.0480  157.1321 H        40        0    0.0000
    632 H         110.0066  142.5323  159.5979 H        40        0    0.0000
    633 H         111.2851  143.7480  159.7277 H        40        0    0.0000
    634 H         111.8148  142.3328  161.5556 H        40        0    0.0000
    635 H         112.1107  139.6771  160.7728 H        40        0    0.0000
    636 H         110.7343  140.1633  159.7879 H        40        0    0.0000
    637 C         110.6438  142.0194  165.1700 C.3      41        0    0.0000
    638 C         110.9958  142.0274  163.6803 C.3      41        0    0.0000
    639 C         111.0688  140.5551  163.2375 C.3      41        0    0.0000
    640 C         110.3489  140.2599  161.9159 C.3      41        0    0.0000
    641 C         110.4746  139.7727  164.4130 C.3      41        0    0.0000
    642 C         110.8676  140.5824  165.6534 C.3      41        0    0.0000
    643 C         112.3179  140.3116  166.0965 C.3      41        0    0.0000
    644 H         111.2159  142.7670  165.7277 H        41        0    0.0000
    645 H         109.5827  142.2760  165.2835 H        41        0    0.0000
    646 H         110.2496  142.6033  163.1220 H        41        0    0.0000
    647 H         111.9657  142.5127  163.5201 H        41        0    0.0000
    648 H         112.1279  140.2757  163.1421 H        41        0    0.0000
    649 H         109.9646  139.2330  161.9332 H        41        0    0.0000
    650 H         109.4830  140.9211  161.7955 H        41        0    0.0000
    651 H         110.8397  138.7410  164.4454 H        41        0    0.0000
    652 H         109.3805  139.7348  164.3325 H        41        0    0.0000
    653 H         110.1835  140.3468  166.4785 H        41        0    0.0000
    654 H         112.6388  141.0287  166.8601 H        41        0    0.0000
    655 H         112.9898  140.4370  165.2391 H        41        0    0.0000
    656 C         113.3368  138.9486  170.2139 C.3      42        0    0.0000
    657 C         112.8173  139.7437  169.0171 C.3      42        0    0.0000
    658 C         112.0742  138.7449  168.1131 C.3      42        0    0.0000
    659 C         112.4944  138.8649  166.6423 C.3      42        0    0.0000
    660 C         112.3577  137.3688  168.7349 C.3      42        0    0.0000
    661 C         112.5378  137.6430  170.2334 C.3      42        0    0.0000
    662 C         111.2170  137.7939  171.0101 C.3      42        0    0.0000
    663 H         114.3984  138.7200  170.0543 H        42        0    0.0000
    664 H         113.2653  139.5158  171.1473 H        42        0    0.0000
    665 H         113.6444  140.2481  168.5056 H        42        0    0.0000
    666 H         112.1229  140.5231  169.3525 H        42        0    0.0000
    667 H         110.9978  138.9518  168.1959 H        42        0    0.0000
    668 H         111.9210  138.1647  166.0240 H        42        0    0.0000
    669 H         113.5497  138.5837  166.5432 H        42        0    0.0000
    670 H         111.5601  136.6502  168.5224 H        42        0    0.0000
    671 H         113.2904  136.9534  168.3315 H        42        0    0.0000
    672 H         113.1390  136.8485  170.6937 H        42        0    0.0000
    673 H         110.5096  138.4329  170.4708 H        42        0    0.0000
    674 H         111.4167  138.2876  171.9690 H        42        0    0.0000
    675 C         110.5535  136.4193  171.3065 C.3      43        0    0.0000
    676 C         109.6167  135.9261  170.1944 C.3      43        0    0.0000
    677 H         111.3676  135.6910  171.4137 H        43        0    0.0000
    678 H         110.0386  136.4584  172.2736 H        43        0    0.0000
    679 H         108.7421  135.4111  170.6088 H        43        0    0.0000
    680 H         109.2376  136.8033  169.6546 H        43        0    0.0000
    681 C         113.7253  135.2907  167.4767 C.3      44        0    0.0000
    682 C         112.2061  135.3373  167.3923 C.3      44        0    0.0000
    683 C         111.7825  135.3606  168.8646 C.3      44        0    0.0000
    684 C         110.3161  135.0085  169.1325 C.3      44        0    0.0000
    685 C         112.8200  134.4890  169.5991 C.3      44        0    0.0000
    686 C         113.9742  134.2783  168.5996 C.3      44        0    0.0000
    687 C         115.3820  134.2985  169.2029 C.3      44        0    0.0000
    688 H         114.1778  134.9757  166.5314 H        44        0    0.0000
    689 H         114.1128  136.2850  167.7249 H        44        0    0.0000
    690 H         111.8537  136.2197  166.8490 H        44        0    0.0000
    691 H         111.8369  134.4471  166.8712 H        44        0    0.0000
    692 H         111.9266  136.3915  169.2217 H        44        0    0.0000
    693 H         109.7559  135.0683  168.1918 H        44        0    0.0000
    694 H         110.2535  133.9674  169.4708 H        44        0    0.0000
    695 H         112.4190  133.5168  169.9052 H        44        0    0.0000
    696 H         113.1386  134.9945  170.5170 H        44        0    0.0000
    697 H         113.8356  133.2776  168.1633 H        44        0    0.0000
    698 H         116.1027  133.9792  168.4407 H        44        0    0.0000
    699 H         115.6426  135.3294  169.4705 H        44        0    0.0000
    700 C         113.1559  130.5523  169.8317 C.3      45        0    0.0000
    701 C         113.7733  131.8944  169.4301 C.3      45        0    0.0000
    702 C         114.3249  132.5176  170.7191 C.3      45        0    0.0000
    703 C         115.5522  133.3963  170.4619 C.3      45        0    0.0000
    704 C         114.5874  131.2991  171.6104 C.3      45        0    0.0000
    705 C         113.3601  130.4205  171.3467 C.3      45        0    0.0000
    706 C         113.5124  128.9624  171.7887 C.3      45        0    0.0000
    707 H         112.0925  130.5077  169.5734 H        45        0    0.0000
    708 H         113.6567  129.7427  169.2874 H        45        0    0.0000
    709 H         113.0326  132.5515  168.9619 H        45        0    0.0000
    710 H         114.5685  131.7248  168.6942 H        45        0    0.0000
    711 H         113.5273  133.1213  171.1763 H        45        0    0.0000
    712 H         116.4311  132.7569  170.3166 H        45        0    0.0000
    713 H         115.7597  134.0249  171.3359 H        45        0    0.0000
    714 H         114.6733  131.5755  172.6661 H        45        0    0.0000
    715 H         115.5099  130.7855  171.3119 H        45        0    0.0000
    716 H         112.4919  130.8705  171.8498 H        45        0    0.0000
    717 H         114.0402  128.3853  171.0205 H        45        0    0.0000
    718 H         112.5188  128.5111  171.8962 H        45        0    0.0000
    719 C         115.4917  125.2745  173.5884 C.3      46        0    0.0000
    720 C         114.9591  126.3762  172.6850 C.3      46        0    0.0000
    721 C         114.3705  127.3943  173.6699 C.3      46        0    0.0000
    722 C         114.2637  128.8305  173.1419 C.3      46        0    0.0000
    723 C         115.1766  127.2269  174.9744 C.3      46        0    0.0000
    724 C         116.1446  126.0544  174.7315 C.3      46        0    0.0000
    725 C         116.4039  125.1740  175.9565 C.3      46        0    0.0000
    726 H         114.6665  124.6517  173.9547 H        46        0    0.0000
    727 H         116.2048  124.6274  173.0686 H        46        0    0.0000
    728 H         115.7820  126.7977  172.0976 H        46        0    0.0000
    729 H         114.2056  126.0019  171.9849 H        46        0    0.0000
    730 H         113.3431  127.0691  173.8922 H        46        0    0.0000
    731 H         113.7508  129.4472  173.8895 H        46        0    0.0000
    732 H         115.2719  129.2468  173.0297 H        46        0    0.0000
    733 H         114.4840  127.0059  175.7960 H        46        0    0.0000
    734 H         115.7270  128.1300  175.2582 H        46        0    0.0000
    735 H         117.0973  126.4659  174.3674 H        46        0    0.0000
    736 H         116.0474  124.1538  175.7714 H        46        0    0.0000
    737 H         117.4843  125.1031  176.1295 H        46        0    0.0000
    738 C         115.9077  122.8328  179.6988 C.3      47        0    0.0000
    739 C         116.0684  123.3823  178.2882 C.3      47        0    0.0000
    740 C         115.9969  124.8979  178.5017 C.3      47        0    0.0000
    741 C         115.7278  125.7272  177.2423 C.3      47        0    0.0000
    742 C         114.9954  125.0983  179.6559 C.3      47        0    0.0000
    743 C         114.7891  123.7040  180.2796 C.3      47        0    0.0000
    744 C         114.6589  123.6759  181.8055 C.3      47        0    0.0000
    745 H         115.6427  121.7710  179.6962 H        47        0    0.0000
    746 H         116.8476  122.9475  180.2498 H        47        0    0.0000
    747 H         117.0161  123.0750  177.8353 H        47        0    0.0000
    748 H         115.2536  123.0166  177.6536 H        47        0    0.0000
    749 H         116.9813  125.2135  178.8792 H        47        0    0.0000
    750 H         114.6456  125.7832  177.0751 H        47        0    0.0000
    751 H         116.0744  126.7541  177.4086 H        47        0    0.0000
    752 H         114.0315  125.4949  179.3191 H        47        0    0.0000
    753 H         115.3978  125.8275  180.3672 H        47        0    0.0000
    754 H         113.8411  123.3154  179.8778 H        47        0    0.0000
    755 H         115.4763  124.2594  182.2453 H        47        0    0.0000
    756 H         113.7256  124.1733  182.0948 H        47        0    0.0000
    757 C         115.4380  122.5198  186.1242 C.3      48        0    0.0000
    758 C         115.0399  123.1799  184.8130 C.3      48        0    0.0000
    759 C         115.4298  122.1397  183.7552 C.3      48        0    0.0000
    760 C         114.6760  122.2455  182.4234 C.3      48        0    0.0000
    761 C         115.3368  120.7715  184.4615 C.3      48        0    0.0000
    762 C         114.9850  121.0713  185.9301 C.3      48        0    0.0000
    763 C         115.6260  120.1248  186.9480 C.3      48        0    0.0000
    764 H         116.5241  122.5795  186.2650 H        48        0    0.0000
    765 H         114.9544  122.9929  186.9844 H        48        0    0.0000
    766 H         113.9633  123.3818  184.8168 H        48        0    0.0000
    767 H         115.5583  124.1318  184.6609 H        48        0    0.0000
    768 H         116.4930  122.3011  183.5227 H        48        0    0.0000
    769 H         115.1310  121.5569  181.7014 H        48        0    0.0000
    770 H         113.6425  121.9098  182.5691 H        48        0    0.0000
    771 H         116.3052  120.2621  184.3815 H        48        0    0.0000
    772 H         114.5911  120.1065  184.0133 H        48        0    0.0000
    773 H         113.8908  121.0358  186.0349 H        48        0    0.0000
    774 H         116.6725  119.9353  186.6815 H        48        0    0.0000
    775 H         115.6344  120.6048  187.9339 H        48        0    0.0000
    776 C         112.2429  120.1189  185.6295 C.3      49        0    0.0000
    777 C         112.8705  120.3294  187.0101 C.3      49        0    0.0000
    778 C         113.3986  118.9636  187.4628 C.3      49        0    0.0000
    779 C         114.8724  118.7697  187.0593 C.3      49        0    0.0000
    780 C         112.4208  117.9988  186.7800 C.3      49        0    0.0000
    781 C         112.2020  118.6006  185.3896 C.3      49        0    0.0000
    782 C         110.9122  118.0961  184.7323 C.3      49        0    0.0000
    783 H         111.2462  120.5739  185.6030 H        49        0    0.0000
    784 H         112.8437  120.6083  184.8544 H        49        0    0.0000
    785 H         112.0906  120.6646  187.7055 H        49        0    0.0000
    786 H         113.6412  121.1068  186.9947 H        49        0    0.0000
    787 H         113.3135  118.8749  188.5535 H        49        0    0.0000
    788 H         114.9162  118.2708  186.0836 H        49        0    0.0000
    789 H         115.3956  118.1178  187.7670 H        49        0    0.0000
    790 H         111.4766  117.9818  187.3400 H        49        0    0.0000
    791 H         112.7876  116.9695  186.7255 H        49        0    0.0000
    792 H         113.0567  118.3273  184.7551 H        49        0    0.0000
    793 H         111.1314  117.2677  184.0487 H        49        0    0.0000
    794 H         110.4732  118.8991  184.1285 H        49        0    0.0000
    795 C         109.8664  117.6363  185.7883 C.3      50        0    0.0000
    796 C         108.6979  118.6145  185.9760 C.3      50        0    0.0000
    797 H         109.4574  116.6814  185.4341 H        50        0    0.0000
    798 H         110.3692  117.4282  186.7400 H        50        0    0.0000
    799 H         108.9335  119.6017  185.5612 H        50        0    0.0000
    800 H         107.8396  118.2326  185.4086 H        50        0    0.0000
    801 C         109.5272  115.5694  189.0273 C.3      51        0    0.0000
    802 C         109.2737  116.4177  187.7906 C.3      51        0    0.0000
    803 C         108.2616  117.4638  188.2747 C.3      51        0    0.0000
    804 C         108.2260  118.7654  187.4637 C.3      51        0    0.0000
    805 C         108.5258  117.6321  189.7851 C.3      51        0    0.0000
    806 C         109.6209  116.6111  190.1441 C.3      51        0    0.0000
    807 C         109.4799  115.9827  191.5328 C.3      51        0    0.0000
    808 H         108.6883  114.8831  189.1955 H        51        0    0.0000
    809 H         110.4423  114.9763  188.9368 H        51        0    0.0000
    810 H         110.2134  116.8738  187.4606 H        51        0    0.0000
    811 H         108.8809  115.8224  186.9603 H        51        0    0.0000
    812 H         107.2627  117.0124  188.1794 H        51        0    0.0000
    813 H         107.2029  119.1600  187.4690 H        51        0    0.0000
    814 H         108.8540  119.5144  187.9607 H        51        0    0.0000
    815 H         107.5981  117.4287  190.3344 H        51        0    0.0000
    816 H         108.8387  118.6459  190.0562 H        51        0    0.0000
    817 H         110.5965  117.1127  190.0661 H        51        0    0.0000
    818 H         110.4315  115.5359  191.8441 H        51        0    0.0000
    819 H         109.2465  116.7666  192.2631 H        51        0    0.0000
    820 C         109.9538  112.1107  192.2686 C.3      52        0    0.0000
    821 C         110.1422  113.1428  191.1534 C.3      52        0    0.0000
    822 C         108.7426  113.6446  190.7816 C.3      52        0    0.0000
    823 C         108.3643  114.9015  191.5876 C.3      52        0    0.0000
    824 C         107.8723  112.4160  191.0752 C.3      52        0    0.0000
    825 C         108.4425  111.8491  192.3778 C.3      52        0    0.0000
    826 C         108.0662  110.3779  192.5874 C.3      52        0    0.0000
    827 H         110.5198  111.2026  192.0317 H        52        0    0.0000
    828 H         110.3408  112.4954  193.2191 H        52        0    0.0000
    829 H         110.5914  112.6459  190.2842 H        52        0    0.0000
    830 H         110.8240  113.9460  191.4507 H        52        0    0.0000
    831 H         108.7055  113.8837  189.7110 H        52        0    0.0000
    832 H         108.2067  114.6230  192.6366 H        52        0    0.0000
    833 H         107.4212  115.3315  191.2337 H        52        0    0.0000
    834 H         107.9858  111.6876  190.2616 H        52        0    0.0000
    835 H         106.8062  112.6454  191.1627 H        52        0    0.0000
    836 H         108.0484  112.4414  193.2155 H        52        0    0.0000
    837 H         106.9820  110.2447  192.4952 H        52        0    0.0000
    838 H         108.3385  110.0740  193.6051 H        52        0    0.0000
    839 C         108.7928  109.4452  191.5763 C.3      53        0    0.0000
    840 C         109.7966  108.4822  192.2262 C.3      53        0    0.0000
    841 H         109.3436  110.0956  190.8848 H        53        0    0.0000
    842 H         108.0526  108.9041  190.9752 H        53        0    0.0000
    843 H         110.2349  108.9846  193.0980 H        53        0    0.0000
    844 H         109.2987  107.5805  192.6016 H        53        0    0.0000
    845 C         111.3776  104.3247  191.2367 C.3      54        0    0.0000
    846 C         110.5205  105.5811  191.2539 C.3      54        0    0.0000
    847 C         111.5285  106.6789  191.6002 C.3      54        0    0.0000
    848 C         110.9881  108.0771  191.2908 C.3      54        0    0.0000
    849 C         112.7868  106.2844  190.8054 C.3      54        0    0.0000
    850 C         112.6578  104.7738  190.5208 C.3      54        0    0.0000
    851 C         113.9069  103.9375  190.8261 C.3      54        0    0.0000
    852 H         110.8838  103.5004  190.7125 H        54        0    0.0000
    853 H         111.5714  103.9997  192.2646 H        54        0    0.0000
    854 H         110.0748  105.7503  190.2661 H        54        0    0.0000
    855 H         109.7118  105.5153  191.9881 H        54        0    0.0000
    856 H         111.7629  106.6054  192.6722 H        54        0    0.0000
    857 H         111.7885  108.8209  191.3828 H        54        0    0.0000
    858 H         110.6455  108.1109  190.2497 H        54        0    0.0000
    859 H         112.8390  106.8240  189.8515 H        54        0    0.0000
    860 H         113.6931  106.5404  191.3642 H        54        0    0.0000
    861 H         112.4741  104.6727  189.4407 H        54        0    0.0000
    862 H         113.6171  102.8850  190.9288 H        54        0    0.0000
    863 H         114.3140  104.2471  191.7961 H        54        0    0.0000
    864 C         116.8405  100.7236  189.5842 C.3      55        0    0.0000
    865 C         115.6582  101.5519  190.0634 C.3      55        0    0.0000
    866 C         116.1413  102.9979  189.8936 C.3      55        0    0.0000
    867 C         115.0312  104.0476  189.7564 C.3      55        0    0.0000
    868 C         117.1653  102.9629  188.7405 C.3      55        0    0.0000
    869 C         117.3096  101.4829  188.3414 C.3      55        0    0.0000
    870 C         118.7195  101.0704  187.9110 C.3      55        0    0.0000
    871 H         117.6233  100.6993  190.3522 H        55        0    0.0000
    872 H         116.5527   99.6929  189.3554 H        55        0    0.0000
    873 H         114.7825  101.3333  189.4428 H        55        0    0.0000
    874 H         115.3966  101.3276  191.1022 H        55        0    0.0000
    875 H         116.7024  103.2580  190.8036 H        55        0    0.0000
    876 H         115.4774  105.0474  189.8181 H        55        0    0.0000
    877 H         114.5816  103.9654  188.7597 H        55        0    0.0000
    878 H         118.1186  103.3724  189.0973 H        55        0    0.0000
    879 H         116.8632  103.5679  187.8792 H        55        0    0.0000
    880 H         116.6022  101.2772  187.5249 H        55        0    0.0000
    881 H         118.6810  100.1413  187.3301 H        55        0    0.0000
    882 H         119.1353  101.8387  187.2484 H        55        0    0.0000
    883 C         119.6798  100.8799  189.1185 C.3      56        0    0.0000
    884 C         120.6672  102.0384  189.3192 C.3      56        0    0.0000
    885 H         120.2593   99.9688  188.9218 H        56        0    0.0000
    886 H         119.0971  100.6904  190.0277 H        56        0    0.0000
    887 H         121.6842  101.6438  189.1981 H        56        0    0.0000
    888 H         120.5373  102.8106  188.5519 H        56        0    0.0000
    889 C         121.7723  101.4193  194.0267 C.3      57        0    0.0000
    890 C         122.0119  101.4565  192.5154 C.3      57        0    0.0000
    891 C         120.6331  101.6366  191.8554 C.3      57        0    0.0000
    892 C         120.6018  102.6920  190.7430 C.3      57        0    0.0000
    893 C         119.6964  101.9850  193.0166 C.3      57        0    0.0000
    894 C         120.2648  101.2167  194.2146 C.3      57        0    0.0000
    895 C         119.8484   99.7336  194.2125 C.3      57        0    0.0000
    896 H         122.3849  100.6572  194.5176 H        57        0    0.0000
    897 H         122.0609  102.3883  194.4539 H        57        0    0.0000
    898 H         122.7114  102.2621  192.2665 H        57        0    0.0000
    899 H         122.4661  100.5175  192.1779 H        57        0    0.0000
    900 H         120.3190  100.6673  191.4426 H        57        0    0.0000
    901 H         119.6736  103.2710  190.8178 H        57        0    0.0000
    902 H         121.4290  103.4007  190.8642 H        57        0    0.0000
    903 H         118.6564  101.7222  192.7976 H        57        0    0.0000
    904 H         119.7294  103.0625  193.2240 H        57        0    0.0000
    905 H         119.9299  101.6888  195.1469 H        57        0    0.0000
    906 H         120.5953   99.1136  193.7045 H        57        0    0.0000
    907 H         118.9094   99.6200  193.6578 H        57        0    0.0000
    908 C         119.6267   99.1940  195.6553 C.3      58        0    0.0000
    909 C         120.8341   98.4413  196.2323 C.3      58        0    0.0000
    910 H         119.4323  100.0657  196.2932 H        58        0    0.0000
    911 H         118.7211   98.5767  195.6837 H        58        0    0.0000
    912 H         120.7801   97.3694  196.0087 H        58        0    0.0000
    913 H         121.7386   98.8195  195.7389 H        58        0    0.0000
    914 C         119.2289  101.3690  197.4368 C.3      59        0    0.0000
    915 C         120.6729  101.0521  197.0385 C.3      59        0    0.0000
    916 C         121.2360  100.1353  198.1300 C.3      59        0    0.0000
    917 C         121.0381   98.6501  197.7729 C.3      59        0    0.0000
    918 C         120.4615  100.5991  199.3702 C.3      59        0    0.0000
    919 C         119.0354  100.8290  198.8635 C.3      59        0    0.0000
    920 C         118.2297  101.7497  199.7871 C.3      59        0    0.0000
    921 H         119.0556  102.4491  197.3710 H        59        0    0.0000
    922 H         118.5248  100.8850  196.7503 H        59        0    0.0000
    923 H         121.2474  101.9869  197.0190 H        59        0    0.0000
    924 H         120.7344  100.6176  196.0356 H        59        0    0.0000
    925 H         122.3081  100.3298  198.2625 H        59        0    0.0000
    926 H         120.1499   98.2700  198.2920 H        59        0    0.0000
    927 H         121.8832   98.0432  198.1151 H        59        0    0.0000
    928 H         120.8915  101.5407  199.7360 H        59        0    0.0000
    929 H         120.4897   99.8833  200.1972 H        59        0    0.0000
    930 H         118.5291   99.8556  198.7994 H        59        0    0.0000
    931 H         117.2133  101.3614  199.9204 H        59        0    0.0000
    932 H         118.1342  102.7382  199.3225 H        59        0    0.0000
    933 C         122.5182  100.7689  201.3215 C.3      60        0    0.0000
    934 C         121.3554  101.3493  200.5312 C.3      60        0    0.0000
    935 C         120.1324  101.0137  201.3941 C.3      60        0    0.0000
    936 C         118.9100  101.9144  201.1765 C.3      60        0    0.0000
    937 C         120.6523  100.9426  202.8447 C.3      60        0    0.0000
    938 C         122.1760  101.1490  202.7636 C.3      60        0    0.0000
    939 C         122.9863  100.3419  203.7809 C.3      60        0    0.0000
    940 H         122.5557   99.6798  201.1974 H        60        0    0.0000
    941 H         123.4789  101.1837  201.0011 H        60        0    0.0000
    942 H         121.4949  102.4295  200.4145 H        60        0    0.0000
    943 H         121.2825  100.9113  199.5307 H        60        0    0.0000
    944 H         119.8181   99.9947  201.1233 H        60        0    0.0000
    945 H         118.1692  101.7035  201.9570 H        60        0    0.0000
    946 H         119.2096  102.9616  201.3026 H        60        0    0.0000
    947 H         120.4069   99.9589  203.2639 H        60        0    0.0000
    948 H         120.1955  101.6900  203.5019 H        60        0    0.0000
    949 H         122.3845  102.2206  202.8960 H        60        0    0.0000
    950 H         123.0171   99.2859  203.4877 H        60        0    0.0000
    951 H         124.0233  100.6983  203.7827 H        60        0    0.0000
    952 C         119.8676  103.0981  206.0901 C.3      61        0    0.0000
    953 C         120.4620  102.0847  205.1086 C.3      61        0    0.0000
    954 C         121.9181  101.8689  205.5415 C.3      61        0    0.0000
    955 C         122.4169  100.4567  205.2228 C.3      61        0    0.0000
    956 C         121.8927  102.2155  207.0339 C.3      61        0    0.0000
    957 C         120.9893  103.4524  207.0752 C.3      61        0    0.0000
    958 C         120.4531  103.8047  208.4655 C.3      61        0    0.0000
    959 H         119.5036  103.9915  205.5715 H        61        0    0.0000
    960 H         119.0095  102.6485  206.6040 H        61        0    0.0000
    961 H         120.4088  102.4483  204.0768 H        61        0    0.0000
    962 H         119.8874  101.1518  205.1543 H        61        0    0.0000
    963 H         122.5437  102.6082  205.0203 H        61        0    0.0000
    964 H         121.5871   99.7475  205.3275 H        61        0    0.0000
    965 H         123.1850  100.1530  205.9437 H        61        0    0.0000
    966 H         122.8942  102.4273  207.4216 H        61        0    0.0000
    967 H         121.4619  101.3945  207.6206 H        61        0    0.0000
    968 H         121.5468  104.3078  206.6664 H        61        0    0.0000
    969 H         119.8820  102.9643  208.8770 H        61        0    0.0000
    970 H         119.7580  104.6487  208.3822 H        61        0    0.0000
    971 C         121.5859  104.1937  209.4547 C.3      62        0    0.0000
    972 C         121.3799  105.5545  210.1352 C.3      62        0    0.0000
    973 H         121.6040  103.4220  210.2349 H        62        0    0.0000
    974 H         122.5549  104.1457  208.9440 H        62        0    0.0000
    975 H         120.5006  106.0720  209.7342 H        62        0    0.0000
    976 H         121.1806  105.3761  211.1997 H        62        0    0.0000
    977 C         125.3382  105.7359  212.4164 C.3      63        0    0.0000
    978 C         123.9810  105.3022  211.8646 C.3      63        0    0.0000
    979 C         123.9329  105.7649  210.3981 C.3      63        0    0.0000
    980 C         122.6289  106.4996  210.0608 C.3      63        0    0.0000
    981 C         125.1975  106.6183  210.2157 C.3      63        0    0.0000
    982 C         126.2172  106.0268  211.1973 C.3      63        0    0.0000
    983 C         126.9218  104.7570  210.6858 C.3      63        0    0.0000
    984 H         125.2072  106.6588  212.9958 H        63        0    0.0000
    985 H         125.7658  104.9882  213.0919 H        63        0    0.0000
    986 H         123.1706  105.7215  212.4709 H        63        0    0.0000
    987 H         123.8850  104.2109  211.9091 H        63        0    0.0000
    988 H         124.0168  104.8735  209.7605 H        63        0    0.0000
    989 H         122.6922  106.9495  209.0632 H        63        0    0.0000
    990 H         122.4831  107.3228  210.7705 H        63        0    0.0000
    991 H         125.5480  106.6163  209.1789 H        63        0    0.0000
    992 H         124.9963  107.6615  210.4924 H        63        0    0.0000
    993 H         126.9724  106.7795  211.4573 H        63        0    0.0000
    994 H         126.9890  104.7528  209.5926 H        63        0    0.0000
    995 H         126.3294  103.8777  210.9665 H        63        0    0.0000
    996 C         129.9034  105.0892  214.6923 C.3      64        0    0.0000
    997 C         129.2769  104.1846  213.6279 C.3      64        0    0.0000
    998 C         128.4206  105.0955  212.7384 C.3      64        0    0.0000
    999 C         128.3434  104.5929  211.2941 C.3      64        0    0.0000
   1000 C         129.0846  106.4667  212.9026 C.3      64        0    0.0000
   1001 C         129.3995  106.5090  214.4016 C.3      64        0    0.0000
   1002 C         130.4130  107.5814  214.8106 C.3      64        0    0.0000
   1003 H         129.6229  104.7721  215.7025 H        64        0    0.0000
   1004 H         130.9963  105.0296  214.6247 H        64        0    0.0000
   1005 H         128.6689  103.3946  214.0816 H        64        0    0.0000
   1006 H         130.0710  103.6936  213.0528 H        64        0    0.0000
   1007 H         127.4094  105.1417  213.1682 H        64        0    0.0000
   1008 H         128.6144  103.5307  211.2655 H        64        0    0.0000
   1009 H         129.0715  105.1217  210.6679 H        64        0    0.0000
   1010 H         128.4193  107.2820  212.6013 H        64        0    0.0000
   1011 H         130.0032  106.5324  212.3061 H        64        0    0.0000
   1012 H         128.4600  106.6588  214.9533 H        64        0    0.0000
   1013 H         131.1905  107.6819  214.0443 H        64        0    0.0000
   1014 H         130.9171  107.2699  215.7333 H        64        0    0.0000
   1015 C         129.7458  108.9628  215.0545 C.3      65        0    0.0000
   1016 C         130.7406  110.0895  215.3680 C.3      65        0    0.0000
   1017 H         129.0809  108.8452  215.9197 H        65        0    0.0000
   1018 H         129.1073  109.2204  214.2013 H        65        0    0.0000
   1019 H         131.1817  109.8899  216.3530 H        65        0    0.0000
   1020 H         131.5692  110.1013  214.6502 H        65        0    0.0000
   1021 C         131.7967  113.8771  213.1506 C.3      66        0    0.0000
   1022 C         131.8126  112.4874  213.7919 C.3      66        0    0.0000
   1023 C         131.1055  112.6224  215.1524 C.3      66        0    0.0000
   1024 C         130.0876  111.5130  215.4445 C.3      66        0    0.0000
   1025 C         130.4593  114.0109  215.1109 C.3      66        0    0.0000
   1026 C         131.4176  114.8572  214.2661 C.3      66        0    0.0000
   1027 C         132.6315  115.3534  215.0744 C.3      66        0    0.0000
   1028 H         132.7471  114.1109  212.6614 H        66        0    0.0000
   1029 H         131.0214  113.8988  212.3739 H        66        0    0.0000
   1030 H         131.3259  111.7632  213.1293 H        66        0    0.0000
   1031 H         132.8442  112.1478  213.9409 H        66        0    0.0000
   1032 H         131.8719  112.6261  215.9406 H        66        0    0.0000
   1033 H         129.6762  111.6535  216.4512 H        66        0    0.0000
   1034 H         129.2451  111.5727  214.7460 H        66        0    0.0000
   1035 H         130.3022  114.4203  216.1141 H        66        0    0.0000
   1036 H         129.4808  113.9622  214.6157 H        66        0    0.0000
   1037 H         130.8790  115.7183  213.8504 H        66        0    0.0000
   1038 H         133.5541  115.2803  214.4880 H        66        0    0.0000
   1039 H         132.7645  114.7181  215.9581 H        66        0    0.0000
   1040 C         133.4886  119.8493  213.7658 C.3      67        0    0.0000
   1041 C         133.6296  118.3319  213.8762 C.3      67        0    0.0000
   1042 C         132.2794  117.7996  214.3868 C.3      67        0    0.0000
   1043 C         132.4432  116.8209  215.5570 C.3      67        0    0.0000
   1044 C         131.4682  119.0580  214.7320 C.3      67        0    0.0000
   1045 C         131.9849  120.1360  213.7706 C.3      67        0    0.0000
   1046 C         131.3847  120.0586  212.3549 C.3      67        0    0.0000
   1047 H         133.9477  120.3134  214.6481 H        67        0    0.0000
   1048 H         134.0040  120.2476  212.8861 H        67        0    0.0000
   1049 H         134.4664  118.0729  214.5340 H        67        0    0.0000
   1050 H         133.8472  117.8990  212.8927 H        67        0    0.0000
   1051 H         131.7845  117.2814  213.5533 H        67        0    0.0000
   1052 H         131.5781  116.8807  216.2276 H        67        0    0.0000
   1053 H         133.3219  117.1067  216.1478 H        67        0    0.0000
   1054 H         130.3905  118.8876  214.6473 H        67        0    0.0000
   1055 H         131.6713  119.3708  215.7645 H        67        0    0.0000
   1056 H         131.8003  121.1343  214.1874 H        67        0    0.0000
   1057 H         131.0088  119.0531  212.1370 H        67        0    0.0000
   1058 H         132.1703  120.2656  211.6181 H        67        0    0.0000
   1059 C         130.2451  121.0956  212.1463 C.3      68        0    0.0000
   1060 C         128.8739  120.4667  211.8606 C.3      68        0    0.0000
   1061 H         130.1677  121.6727  213.0767 H        68        0    0.0000
   1062 H         130.5302  121.8048  211.3604 H        68        0    0.0000
   1063 H         128.3018  121.0661  211.1427 H        68        0    0.0000
   1064 H         129.0391  119.4884  211.3912 H        68        0    0.0000
   1065 C         131.1244  120.7841  214.0100 C.3      69        0    0.0000
   1066 C         130.3099  119.4898  213.9368 C.3      69        0    0.0000
   1067 C         128.8812  119.8480  214.3605 C.3      69        0    0.0000
   1068 C         128.0095  120.2126  213.1440 C.3      69        0    0.0000
   1069 C         129.1173  121.0031  215.3418 C.3      69        0    0.0000
   1070 C         130.2293  121.8314  214.6932 C.3      69        0    0.0000
   1071 C         130.9560  122.7252  215.7045 C.3      69        0    0.0000
   1072 H         132.0546  120.6052  214.5611 H        69        0    0.0000
   1073 H         131.4024  121.1219  213.0051 H        69        0    0.0000
   1074 H         130.7286  118.7679  214.6494 H        69        0    0.0000
   1075 H         130.3634  119.0286  212.9454 H        69        0    0.0000
   1076 H         128.4244  118.9982  214.8838 H        69        0    0.0000
   1077 H         127.4461  121.1272  213.3656 H        69        0    0.0000
   1078 H         127.2694  119.4323  212.9373 H        69        0    0.0000
   1079 H         129.4566  120.5985  216.3044 H        69        0    0.0000
   1080 H         128.2229  121.6026  215.5358 H        69        0    0.0000
   1081 H         129.7809  122.4643  213.9146 H        69        0    0.0000
   1082 H         131.3520  122.1228  216.5304 H        69        0    0.0000
   1083 H         130.2433  123.4346  216.1415 H        69        0    0.0000
   1084 C         131.2766  124.9103  211.6036 C.3      70        0    0.0000
   1085 C         131.2375  123.7757  212.6178 C.3      70        0    0.0000
   1086 C         131.6682  124.4641  213.9172 C.3      70        0    0.0000
   1087 C         132.1144  123.5250  215.0421 C.3      70        0    0.0000
   1088 C         132.6994  125.5271  213.4908 C.3      70        0    0.0000
   1089 C         132.5752  125.6417  211.9588 C.3      70        0    0.0000
   1090 C         132.7094  127.0573  211.3895 C.3      70        0    0.0000
   1091 H         131.2824  124.5384  210.5743 H        70        0    0.0000
   1092 H         130.3958  125.5496  211.7294 H        70        0    0.0000
   1093 H         130.2398  123.3332  212.6980 H        70        0    0.0000
   1094 H         131.9364  122.9872  212.3180 H        70        0    0.0000
   1095 H         130.7903  125.0094  214.2953 H        70        0    0.0000
   1096 H         132.8504  122.8157  214.6454 H        70        0    0.0000
   1097 H         132.6258  124.1101  215.8156 H        70        0    0.0000
   1098 H         133.7267  125.2540  213.7553 H        70        0    0.0000
   1099 H         132.4880  126.4699  214.0067 H        70        0    0.0000
   1100 H         133.4003  125.0531  211.5301 H        70        0    0.0000
   1101 H         132.1919  127.1054  210.4240 H        70        0    0.0000
   1102 H         132.1981  127.7618  212.0563 H        70        0    0.0000
   1103 C         134.1805  127.5319  211.1932 C.3      71        0    0.0000
   1104 C         134.3088  128.8961  210.5003 C.3      71        0    0.0000
   1105 H         134.6739  126.7817  210.5620 H        71        0    0.0000
   1106 H         134.7032  127.5233  212.1568 H        71        0    0.0000
   1107 H         133.4171  129.0472  209.8784 H        71        0    0.0000
   1108 H         134.3243  129.7142  211.2299 H        71        0    0.0000
   1109 C         135.5494  129.0131  209.5486 C.3      72        0    0.0000
   1110 C         135.1965  129.4191  208.1105 C.3      72        0    0.0000
   1111 H         136.0191  128.0216  209.5169 H        72        0    0.0000
   1112 H         136.2875  129.6956  209.9860 H        72        0    0.0000
   1113 H         134.1660  129.0993  207.9097 H        72        0    0.0000
   1114 H         135.2162  130.5083  207.9874 H        72        0    0.0000
   1115 C         138.9016  127.0017  208.8438 C.3      73        0    0.0000
   1116 C         137.5985  127.8052  208.8495 C.3      73        0    0.0000
   1117 C         137.5374  128.5362  207.5018 C.3      73        0    0.0000
   1118 C         136.0998  128.7475  207.0189 C.3      73        0    0.0000
   1119 C         138.3949  127.6543  206.5881 C.3      73        0    0.0000
   1120 C         139.5737  127.2807  207.4930 C.3      73        0    0.0000
   1121 C         140.4050  126.0930  207.0002 C.3      73        0    0.0000
   1122 H         139.5541  127.2915  209.6744 H        73        0    0.0000
   1123 H         138.6739  125.9360  208.9662 H        73        0    0.0000
   1124 H         137.5697  128.5152  209.6831 H        73        0    0.0000
   1125 H         136.7493  127.1227  208.9746 H        73        0    0.0000
   1126 H         138.0354  129.5100  207.6174 H        73        0    0.0000
   1127 H         135.6616  127.7784  206.7517 H        73        0    0.0000
   1128 H         136.0902  129.3601  206.1098 H        73        0    0.0000
   1129 H         138.7215  128.1903  205.6914 H        73        0    0.0000
   1130 H         137.8422  126.7601  206.2737 H        73        0    0.0000
   1131 H         140.2208  128.1625  207.6079 H        73        0    0.0000
   1132 H         139.8205  125.4839  206.3008 H        73        0    0.0000
   1133 H         140.6531  125.4470  207.8509 H        73        0    0.0000
   1134 C         143.1503  128.3947  209.3132 C.3      74        0    0.0000
   1135 C         142.4300  127.1901  208.7235 C.3      74        0    0.0000
   1136 C         142.6541  127.3615  207.2175 C.3      74        0    0.0000
   1137 C         141.7267  126.5397  206.3171 C.3      74        0    0.0000
   1138 C         142.6377  128.8835  206.9755 C.3      74        0    0.0000
   1139 C         142.7435  129.5315  208.3699 C.3      74        0    0.0000
   1140 C         143.6097  130.7924  208.4481 C.3      74        0    0.0000
   1141 H         142.8450  128.5883  210.3461 H        74        0    0.0000
   1142 H         144.2318  128.2196  209.3052 H        74        0    0.0000
   1143 H         142.8402  126.2461  209.0955 H        74        0    0.0000
   1144 H         141.3678  127.2277  208.9891 H        74        0    0.0000
   1145 H         143.6784  127.0191  207.0065 H        74        0    0.0000
   1146 H         141.4809  127.1275  205.4248 H        74        0    0.0000
   1147 H         142.2622  125.6482  205.9695 H        74        0    0.0000
   1148 H         141.7223  129.2262  206.4812 H        74        0    0.0000
   1149 H         143.4668  129.1580  206.3144 H        74        0    0.0000
   1150 H         141.7248  129.8341  208.6558 H        74        0    0.0000
   1151 H         144.4925  130.6605  207.8113 H        74        0    0.0000
   1152 H         143.0480  131.6393  208.0363 H        74        0    0.0000
   1153 C         144.0810  131.1572  209.8878 C.3      75        0    0.0000
   1154 C         144.9736  132.4048  209.9548 C.3      75        0    0.0000
   1155 H         143.1762  131.3540  210.4771 H        75        0    0.0000
   1156 H         144.5715  130.2908  210.3467 H        75        0    0.0000
   1157 H         145.8358  132.3148  209.2837 H        75        0    0.0000
   1158 H         144.3876  133.2621  209.5995 H        75        0    0.0000
   1159 C         149.0143  133.6832  211.2617 C.3      76        0    0.0000
   1160 C         147.7309  133.4650  210.4617 C.3      76        0    0.0000
   1161 C         146.5628  133.8315  211.3935 C.3      76        0    0.0000
   1162 C         145.4645  132.7601  211.4009 C.3      76        0    0.0000
   1163 C         147.2155  134.0685  212.7642 C.3      76        0    0.0000
   1164 C         148.6285  134.5734  212.4458 C.3      76        0    0.0000
   1165 C         148.6972  136.0679  212.0822 C.3      76        0    0.0000
   1166 H         149.3669  132.7144  211.6380 H        76        0    0.0000
   1167 H         149.8167  134.1023  210.6463 H        76        0    0.0000
   1168 H         147.6786  132.4331  210.0977 H        76        0    0.0000
   1169 H         147.7177  134.1181  209.5812 H        76        0    0.0000
   1170 H         146.1349  134.7803  211.0403 H        76        0    0.0000
   1171 H         144.6140  133.0907  212.0085 H        76        0    0.0000
   1172 H         145.8521  131.8474  211.8692 H        76        0    0.0000
   1173 H         146.6381  134.7663  213.3785 H        76        0    0.0000
   1174 H         147.2883  133.1244  213.3197 H        76        0    0.0000
   1175 H         149.3001  134.3758  213.2910 H        76        0    0.0000
   1176 H         147.8517  136.6196  212.5071 H        76        0    0.0000
   1177 H         148.6275  136.1779  210.9932 H        76        0    0.0000
   1178 C         153.6614  135.9639  212.6376 C.3      77        0    0.0000
   1179 C         152.4839  136.4608  211.7953 C.3      77        0    0.0000
   1180 C         151.2232  135.7775  212.3550 C.3      77        0    0.0000
   1181 C         150.0296  136.7212  212.5468 C.3      77        0    0.0000
   1182 C         151.6843  135.1449  213.6719 C.3      77        0    0.0000
   1183 C         153.1442  134.7524  213.4209 C.3      77        0    0.0000
   1184 C         153.2714  133.4290  212.6427 C.3      77        0    0.0000
   1185 H         154.5405  135.7495  212.0223 H        77        0    0.0000
   1186 H         153.9483  136.7533  213.3441 H        77        0    0.0000
   1187 H         152.4290  137.5542  211.8359 H        77        0    0.0000
   1188 H         152.6224  136.1823  210.7441 H        77        0    0.0000
   1189 H         150.9366  134.9675  211.6692 H        77        0    0.0000
   1190 H         149.9384  136.9804  213.6084 H        77        0    0.0000
   1191 H         150.1919  137.6593  212.0036 H        77        0    0.0000
   1192 H         151.0585  134.2937  213.9592 H        77        0    0.0000
   1193 H         151.6379  135.8801  214.4857 H        77        0    0.0000
   1194 H         153.6716  134.6646  214.3793 H        77        0    0.0000
   1195 H         154.3130  133.2306  212.3669 H        77        0    0.0000
   1196 H         152.7024  133.5003  211.7081 H        77        0    0.0000
   1197 C         151.1335  131.8682  216.8805 C.3      78        0    0.0000
   1198 C         151.0551  131.6874  215.3723 C.3      78        0    0.0000
   1199 C         152.1746  132.5933  214.8440 C.3      78        0    0.0000
   1200 C         152.7161  132.2246  213.4570 C.3      78        0    0.0000
   1201 C         153.2269  132.6560  215.9702 C.3      78        0    0.0000
   1202 C         152.6398  131.8584  217.1490 C.3      78        0    0.0000
   1203 C         152.9829  132.4154  218.5329 C.3      78        0    0.0000
   1204 H         150.6857  132.8262  217.1719 H        78        0    0.0000
   1205 H         150.6123  131.0691  217.4165 H        78        0    0.0000
   1206 H         151.2222  130.6346  215.1207 H        78        0    0.0000
   1207 H         150.0758  131.9746  214.9768 H        78        0    0.0000
   1208 H         151.7526  133.6053  214.7525 H        78        0    0.0000
   1209 H         153.5141  131.4816  213.5726 H        78        0    0.0000
   1210 H         151.9195  131.7423  212.8781 H        78        0    0.0000
   1211 H         153.3937  133.7050  216.2447 H        78        0    0.0000
   1212 H         154.1987  132.2478  215.6732 H        78        0    0.0000
   1213 H         152.9963  130.8209  217.0727 H        78        0    0.0000
   1214 H         152.1046  132.3697  219.1875 H        78        0    0.0000
   1215 H         153.7531  131.7869  218.9956 H        78        0    0.0000
   1216 C         155.3373  134.5215  215.2087 C.3      79        0    0.0000
   1217 C         154.9318  133.5813  216.3353 C.3      79        0    0.0000
   1218 C         153.8400  134.3717  217.0638 C.3      79        0    0.0000
   1219 C         153.5023  133.8794  218.4744 C.3      79        0    0.0000
   1220 C         154.2706  135.8480  216.9606 C.3      79        0    0.0000
   1221 C         155.3931  135.8851  215.9052 C.3      79        0    0.0000
   1222 C         155.3831  137.1004  214.9729 C.3      79        0    0.0000
   1223 H         156.3011  134.2434  214.7711 H        79        0    0.0000
   1224 H         154.5827  134.4947  214.4149 H        79        0    0.0000
   1225 H         154.5623  132.6237  215.9555 H        79        0    0.0000
   1226 H         155.7953  133.3814  216.9792 H        79        0    0.0000
   1227 H         152.9204  134.2685  216.4683 H        79        0    0.0000
   1228 H         154.3950  133.9620  219.1057 H        79        0    0.0000
   1229 H         152.7445  134.5397  218.9126 H        79        0    0.0000
   1230 H         154.6457  136.2493  217.9082 H        79        0    0.0000
   1231 H         153.4069  136.4628  216.6852 H        79        0    0.0000
   1232 H         156.3445  135.9226  216.4571 H        79        0    0.0000
   1233 H         156.3228  137.1265  214.4086 H        79        0    0.0000
   1234 H         154.5777  136.9820  214.2383 H        79        0    0.0000
   1235 C         155.1989  138.4652  215.7019 C.3      80        0    0.0000
   1236 C         153.7343  138.8278  215.9864 C.3      80        0    0.0000
   1237 H         155.6184  139.2358  215.0426 H        80        0    0.0000
   1238 H         155.7984  138.4777  216.6197 H        80        0    0.0000
   1239 H         153.6212  139.9121  215.8596 H        80        0    0.0000
   1240 H         153.0587  138.3555  215.2635 H        80        0    0.0000
   1241 C         155.9396  135.8356  217.6123 C.3      81        0    0.0000
   1242 C         154.7035  136.4485  216.9489 C.3      81        0    0.0000
   1243 C         154.0045  137.2840  218.0294 C.3      81        0    0.0000
   1244 C         153.2664  138.4915  217.4447 C.3      81        0    0.0000
   1245 C         155.1456  137.6368  218.9893 C.3      81        0    0.0000
   1246 C         155.9360  136.3263  219.0661 C.3      81        0    0.0000
   1247 C         157.3501  136.4665  219.6365 C.3      81        0    0.0000
   1248 H         155.9171  134.7415  217.5670 H        81        0    0.0000
   1249 H         156.8403  136.1643  217.0801 H        81        0    0.0000
   1250 H         154.0346  135.6748  216.5568 H        81        0    0.0000
   1251 H         155.0147  137.0694  216.1003 H        81        0    0.0000
   1252 H         153.2908  136.6343  218.5567 H        81        0    0.0000
   1253 H         153.4459  139.3676  218.0793 H        81        0    0.0000
   1254 H         152.1845  138.3144  217.4491 H        81        0    0.0000
   1255 H         154.7733  137.9478  219.9706 H        81        0    0.0000
   1256 H         155.7651  138.4460  218.5828 H        81        0    0.0000
   1257 H         155.3638  135.6064  219.6693 H        81        0    0.0000
   1258 H         158.0956  136.2515  218.8620 H        81        0    0.0000
   1259 H         157.4955  135.7238  220.4301 H        81        0    0.0000
   1260 C         157.6114  137.8789  220.2278 C.3      82        0    0.0000
   1261 C         156.3631  138.5476  220.8212 C.3      82        0    0.0000
   1262 H         158.3463  137.7541  221.0334 H        82        0    0.0000
   1263 H         158.0826  138.5154  219.4697 H        82        0    0.0000
   1264 H         155.6352  138.7974  220.0405 H        82        0    0.0000
   1265 H         155.8738  137.8251  221.4869 H        82        0    0.0000
   1266 C         156.8975  143.2963  220.4021 C.3      83        0    0.0000
   1267 C         156.3674  141.8809  220.1602 C.3      83        0    0.0000
   1268 C         157.3484  140.9189  220.8541 C.3      83        0    0.0000
   1269 C         156.6712  139.8207  221.6832 C.3      83        0    0.0000
   1270 C         158.2373  141.8296  221.7072 C.3      83        0    0.0000
   1271 C         158.3353  143.1327  220.9067 C.3      83        0    0.0000
   1272 C         159.3702  143.0468  219.7689 C.3      83        0    0.0000
   1273 H         156.8116  143.9217  219.5085 H        83        0    0.0000
   1274 H         156.2930  143.7707  221.1859 H        83        0    0.0000
   1275 H         155.3441  141.7936  220.5418 H        83        0    0.0000
   1276 H         156.3319  141.6652  219.0860 H        83        0    0.0000
   1277 H         157.9780  140.4528  220.0827 H        83        0    0.0000
   1278 H         157.3313  139.5302  222.5092 H        83        0    0.0000
   1279 H         155.7454  140.1968  222.1335 H        83        0    0.0000
   1280 H         159.2148  141.3785  221.9066 H        83        0    0.0000
   1281 H         157.7609  142.0301  222.6756 H        83        0    0.0000
   1282 H         158.5997  143.9586  221.5793 H        83        0    0.0000
   1283 H         159.4796  144.0108  219.2598 H        83        0    0.0000
   1284 H         159.0256  142.3268  219.0171 H        83        0    0.0000
   1285 C         160.7903  140.5514  223.3959 C.3      84        0    0.0000
   1286 C         159.9330  141.2709  222.3518 C.3      84        0    0.0000
   1287 C         160.7811  142.4374  221.8141 C.3      84        0    0.0000
   1288 C         160.7607  142.5777  220.2870 C.3      84        0    0.0000
   1289 C         162.1884  142.1682  222.3565 C.3      84        0    0.0000
   1290 C         161.9566  141.4937  223.7128 C.3      84        0    0.0000
   1291 C         161.6302  142.5081  224.8253 C.3      84        0    0.0000
   1292 H         160.2052  140.2620  224.2741 H        84        0    0.0000
   1293 H         161.1844  139.6275  222.9534 H        84        0    0.0000
   1294 H         159.6294  140.5686  221.5677 H        84        0    0.0000
   1295 H         159.0166  141.6584  222.8121 H        84        0    0.0000
   1296 H         160.4131  143.3690  222.2673 H        84        0    0.0000
   1297 H         161.5130  143.3139  219.9799 H        84        0    0.0000
   1298 H         161.0327  141.6282  219.8116 H        84        0    0.0000
   1299 H         162.7807  143.0858  222.4336 H        84        0    0.0000
   1300 H         162.7283  141.4800  221.6932 H        84        0    0.0000
   1301 H         162.8471  140.9173  223.9941 H        84        0    0.0000
   1302 H         161.7187  142.0504  225.8167 H        84        0    0.0000
   1303 H         160.5910  142.8418  224.7200 H        84        0    0.0000
   1304 C         163.8735  142.0403  221.7926 C.3      85        0    0.0000
   1305 C         162.9664  143.1566  222.3078 C.3      85        0    0.0000
   1306 C         163.5855  143.6555  223.6248 C.3      85        0    0.0000
   1307 C         162.5506  143.7609  224.7527 C.3      85        0    0.0000
   1308 C         164.7305  142.6731  223.9155 C.3      85        0    0.0000
   1309 C         165.2027  142.1987  222.5353 C.3      85        0    0.0000
   1310 C         166.1434  143.1837  221.8176 C.3      85        0    0.0000
   1311 H         163.4273  141.0719  222.0531 H        85        0    0.0000
   1312 H         163.9787  142.0650  220.7034 H        85        0    0.0000
   1313 H         161.9414  142.7899  222.4304 H        85        0    0.0000
   1314 H         162.9296  143.9793  221.5839 H        85        0    0.0000
   1315 H         164.0156  144.6500  223.4396 H        85        0    0.0000
   1316 H         161.9388  144.6615  224.6254 H        85        0    0.0000
   1317 H         163.0707  143.8647  225.7127 H        85        0    0.0000
   1318 H         165.5273  143.1348  224.5069 H        85        0    0.0000
   1319 H         164.3575  141.8107  224.4832 H        85        0    0.0000
   1320 H         165.6974  141.2226  222.6197 H        85        0    0.0000
   1321 H         166.6593  143.8334  222.5328 H        85        0    0.0000
   1322 H         165.5513  143.8403  221.1686 H        85        0    0.0000
   1323 C         169.9439  140.5240  222.5075 C.3      86        0    0.0000
   1324 C         168.6307  141.2798  222.7246 C.3      86        0    0.0000
   1325 C         168.5554  142.3557  221.6265 C.3      86        0    0.0000
   1326 C         167.1910  142.4509  220.9324 C.3      86        0    0.0000
   1327 C         169.6804  141.9881  220.6537 C.3      86        0    0.0000
   1328 C         170.7714  141.3763  221.5392 C.3      86        0    0.0000
   1329 C         171.6208  142.4473  222.2494 C.3      86        0    0.0000
   1330 H         170.4521  140.3105  223.4527 H        86        0    0.0000
   1331 H         169.7217  139.5579  222.0365 H        86        0    0.0000
   1332 H         167.7870  140.5815  222.6949 H        86        0    0.0000
   1333 H         168.6230  141.7552  223.7124 H        86        0    0.0000
   1334 H         168.7992  143.3277  222.0787 H        86        0    0.0000
   1335 H         167.2999  143.0042  219.9920 H        86        0    0.0000
   1336 H         166.8232  141.4517  220.6725 H        86        0    0.0000
   1337 H         170.0309  142.8557  220.0854 H        86        0    0.0000
   1338 H         169.3316  141.2380  219.9322 H        86        0    0.0000
   1339 H         171.4237  140.7372  220.9306 H        86        0    0.0000
   1340 H         171.2216  143.4518  222.0705 H        86        0    0.0000
   1341 H         172.6392  142.4323  221.8434 H        86        0    0.0000
   1342 C         171.7069  142.1931  223.7823 C.3      87        0    0.0000
   1343 C         172.6650  143.1402  224.5189 C.3      87        0    0.0000
   1344 H         170.6981  142.3475  224.1862 H        87        0    0.0000
   1345 H         171.9619  141.1433  223.9690 H        87        0    0.0000
   1346 H         173.6692  143.1125  224.0799 H        87        0    0.0000
   1347 H         172.2950  144.1656  224.3914 H        87        0    0.0000
   1348 C         172.7558  142.8806  226.0626 C.3      88        0    0.0000
   1349 C         173.6887  143.8486  226.8042 C.3      88        0    0.0000
   1350 H         171.7429  143.0080  226.4655 H        88        0    0.0000
   1351 H         173.0369  141.8368  226.2458 H        88        0    0.0000
   1352 H         173.1478  144.4148  227.5715 H        88        0    0.0000
   1353 H         174.4478  143.2548  227.3293 H        88        0    0.0000
   1354 C         176.0172  147.7505  227.7424 C.3      89        0    0.0000
   1355 C         174.8666  146.7763  227.5315 C.3      89        0    0.0000
   1356 C         175.4703  145.7345  226.5839 C.3      89        0    0.0000
   1357 C         174.4594  144.8378  225.8627 C.3      89        0    0.0000
   1358 C         176.4285  146.5238  225.6706 C.3      89        0    0.0000
   1359 C         176.5964  147.9055  226.3324 C.3      89        0    0.0000
   1360 C         178.0044  148.5046  226.2623 C.3      89        0    0.0000
   1361 H         175.6744  148.7052  228.1534 H        89        0    0.0000
   1362 H         176.7430  147.3203  228.4411 H        89        0    0.0000
   1363 H         174.5308  146.3303  228.4729 H        89        0    0.0000
   1364 H         174.0163  147.2999  227.0807 H        89        0    0.0000
   1365 H         176.0957  145.0692  227.1982 H        89        0    0.0000
   1366 H         173.7295  145.4684  225.3413 H        89        0    0.0000
   1367 H         174.9808  144.2569  225.0928 H        89        0    0.0000
   1368 H         176.0406  146.6497  224.6540 H        89        0    0.0000
   1369 H         177.3743  145.9797  225.5750 H        89        0    0.0000
   1370 H         175.9349  148.5981  225.7902 H        89        0    0.0000
   1371 H         178.6308  147.8729  225.6213 H        89        0    0.0000
   1372 H         177.9519  149.4881  225.7805 H        89        0    0.0000
   1373 C         178.7031  148.6619  227.6462 C.3      90        0    0.0000
   1374 C         180.0527  149.3914  227.5845 C.3      90        0    0.0000
   1375 H         178.0260  149.2513  228.2777 H        90        0    0.0000
   1376 H         178.8018  147.6800  228.1239 H        90        0    0.0000
   1377 H         180.6991  148.9690  226.8062 H        90        0    0.0000
   1378 H         179.8630  150.4350  227.3026 H        90        0    0.0000
   1379 C         183.7097  151.8708  228.7791 C.3      91        0    0.0000
   1380 C         182.3912  151.3545  228.2235 C.3      91        0    0.0000
   1381 C         182.2550  149.9643  228.8573 C.3      91        0    0.0000
   1382 C         180.8222  149.4242  228.9503 C.3      91        0    0.0000
   1383 C         183.0225  150.0379  230.1934 C.3      91        0    0.0000
   1384 C         183.6551  151.4406  230.2465 C.3      91        0    0.0000
   1385 C         185.0304  151.4977  230.9161 C.3      91        0    0.0000
   1386 H         184.5519  151.3983  228.2591 H        91        0    0.0000
   1387 H         183.8039  152.9555  228.6691 H        91        0    0.0000
   1388 H         181.5796  152.0264  228.5229 H        91        0    0.0000
   1389 H         182.3995  151.3063  227.1301 H        91        0    0.0000
   1390 H         182.8090  149.2631  228.2156 H        91        0    0.0000
   1391 H         180.8511  148.4080  229.3612 H        91        0    0.0000
   1392 H         180.2547  150.0349  229.6624 H        91        0    0.0000
   1393 H         183.7912  149.2552  230.2069 H        91        0    0.0000
   1394 H         182.3830  149.8690  231.0661 H        91        0    0.0000
   1395 H         182.9615  152.1100  230.7759 H        91        0    0.0000
   1396 H         184.9405  151.2699  231.9848 H        91        0    0.0000
   1397 H         185.6766  150.7250  230.4829 H        91        0    0.0000
   1398 C         185.7207  152.8798  230.7435 C.3      92        0    0.0000
   1399 C         187.1319  152.9516  231.3442 C.3      92        0    0.0000
   1400 H         185.0921  153.6149  231.2622 H        92        0    0.0000
   1401 H         185.7234  153.1618  229.6841 H        92        0    0.0000
   1402 H         187.0346  153.1479  232.4196 H        92        0    0.0000
   1403 H         187.6562  151.9937  231.2466 H        92        0    0.0000
   1404 C         188.0184  154.1018  230.7526 C.3      93        0    0.0000
   1405 C         189.4071  154.2139  231.3978 C.3      93        0    0.0000
   1406 H         187.4814  155.0414  230.9350 H        93        0    0.0000
   1407 H         188.0920  153.9891  229.6645 H        93        0    0.0000
   1408 H         189.3431  153.8092  232.4160 H        93        0    0.0000
   1409 H         190.1453  153.6040  230.8640 H        93        0    0.0000
   1410 C         190.6465  155.9414  235.1192 C.3      94        0    0.0000
   1411 C         190.5459  155.0103  233.9118 C.3      94        0    0.0000
   1412 C         190.9348  155.8439  232.6786 C.3      94        0    0.0000
   1413 C         189.9323  155.6856  231.5278 C.3      94        0    0.0000
   1414 C         191.0635  157.2822  233.2034 C.3      94        0    0.0000
   1415 C         191.4980  157.1303  234.6667 C.3      94        0    0.0000
   1416 C         193.0020  156.8588  234.8531 C.3      94        0    0.0000
   1417 H         189.6406  156.2955  235.3788 H        94        0    0.0000
   1418 H         191.0468  155.4306  236.0006 H        94        0    0.0000
   1419 H         189.5384  154.5862  233.8395 H        94        0    0.0000
   1420 H         191.2418  154.1703  234.0222 H        94        0    0.0000
   1421 H         191.9241  155.5043  232.3406 H        94        0    0.0000
   1422 H         190.3864  156.0004  230.5811 H        94        0    0.0000
   1423 H         189.0740  156.3456  231.7021 H        94        0    0.0000
   1424 H         191.7632  157.8757  232.6068 H        94        0    0.0000
   1425 H         190.0902  157.7888  233.1687 H        94        0    0.0000
   1426 H         191.2184  158.0242  235.2389 H        94        0    0.0000
   1427 H         193.4397  156.4124  233.9537 H        94        0    0.0000
   1428 H         193.1397  156.1315  235.6624 H        94        0    0.0000
   1429 C         190.8809  159.0124  233.9657 C.3      95        0    0.0000
   1430 C         192.2855  158.9807  233.3571 C.3      95        0    0.0000
   1431 C         193.2549  159.3824  234.4742 C.3      95        0    0.0000
   1432 C         193.7862  158.1483  235.2272 C.3      95        0    0.0000
   1433 C         192.3922  160.3231  235.3252 C.3      95        0    0.0000
   1434 C         191.0168  159.6520  235.3575 C.3      95        0    0.0000
   1435 C         189.8967  160.6349  235.7167 C.3      95        0    0.0000
   1436 H         190.2064  159.5752  233.3105 H        95        0    0.0000
   1437 H         190.4760  157.9977  234.0536 H        95        0    0.0000
   1438 H         192.3373  159.7214  232.5490 H        95        0    0.0000
   1439 H         192.5171  158.0068  232.9139 H        95        0    0.0000
   1440 H         194.1040  159.9332  234.0495 H        95        0    0.0000
   1441 H         193.6827  158.3126  236.3067 H        95        0    0.0000
   1442 H         194.8536  157.9951  235.0357 H        95        0    0.0000
   1443 H         192.3265  161.3016  234.8317 H        95        0    0.0000
   1444 H         192.7881  160.4899  236.3314 H        95        0    0.0000
   1445 H         191.0407  158.8483  236.1069 H        95        0    0.0000
   1446 H         190.3067  161.6394  235.8736 H        95        0    0.0000
   1447 H         189.4335  160.3292  236.6623 H        95        0    0.0000
   1448 C         185.5535  162.3285  235.6800 C.3      96        0    0.0000
   1449 C         186.2840  161.2523  234.8916 C.3      96        0    0.0000
   1450 C         187.7290  161.7645  234.8396 C.3      96        0    0.0000
   1451 C         188.7982  160.6875  234.6164 C.3      96        0    0.0000
   1452 C         187.9118  162.6263  236.1058 C.3      96        0    0.0000
   1453 C         186.5391  162.6595  236.8025 C.3      96        0    0.0000
   1454 C         186.2037  163.9837  237.4932 C.3      96        0    0.0000
   1455 H         185.3675  163.2037  235.0456 H        96        0    0.0000
   1456 H         184.5924  161.9735  236.0645 H        96        0    0.0000
   1457 H         186.2037  160.2949  235.4177 H        96        0    0.0000
   1458 H         185.8606  161.1207  233.8909 H        96        0    0.0000
   1459 H         187.7961  162.4498  233.9814 H        96        0    0.0000
   1460 H         188.3097  159.7073  234.5612 H        96        0    0.0000
   1461 H         189.2775  160.8545  233.6445 H        96        0    0.0000
   1462 H         188.2307  163.6332  235.8092 H        96        0    0.0000
   1463 H         188.6796  162.2374  236.7829 H        96        0    0.0000
   1464 H         186.5085  161.8437  237.5393 H        96        0    0.0000
   1465 H         185.2516  163.8995  238.0304 H        96        0    0.0000
   1466 H         186.9707  164.2045  238.2451 H        96        0    0.0000
   1467 C         185.7233  167.8281  239.1687 C.3      97        0    0.0000
   1468 C         185.1759  166.6189  238.4259 C.3      97        0    0.0000
   1469 C         186.0411  166.5532  237.1610 C.3      97        0    0.0000
   1470 C         186.1255  165.1735  236.4959 C.3      97        0    0.0000
   1471 C         187.3941  167.1853  237.5478 C.3      97        0    0.0000
   1472 C         187.2365  167.6792  238.9976 C.3      97        0    0.0000
   1473 C         187.9838  168.9764  239.3168 C.3      97        0    0.0000
   1474 H         185.3617  168.7541  238.7052 H        97        0    0.0000
   1475 H         185.4243  167.8322  240.2213 H        97        0    0.0000
   1476 H         185.2870  165.7251  239.0494 H        97        0    0.0000
   1477 H         184.1133  166.7316  238.1890 H        97        0    0.0000
   1478 H         185.5808  167.2255  236.4218 H        97        0    0.0000
   1479 H         185.2487  165.0347  235.8522 H        97        0    0.0000
   1480 H         187.0039  165.1450  235.8403 H        97        0    0.0000
   1481 H         187.6068  168.0180  236.8659 H        97        0    0.0000
   1482 H         188.2335  166.4868  237.4665 H        97        0    0.0000
   1483 H         187.5823  166.8817  239.6712 H        97        0    0.0000
   1484 H         187.5559  169.8095  238.7466 H        97        0    0.0000
   1485 H         187.8503  169.2198  240.3775 H        97        0    0.0000
   1486 C         192.2239  171.4836  239.2492 C.3      98        0    0.0000
   1487 C         191.7608  170.0418  239.1072 C.3      98        0    0.0000
   1488 C         190.2752  170.1223  239.4641 C.3      98        0    0.0000
   1489 C         189.5055  168.8776  239.0152 C.3      98        0    0.0000
   1490 C         189.8122  171.4366  238.8094 C.3      98        0    0.0000
   1491 C         191.0824  172.2906  238.6176 C.3      98        0    0.0000
   1492 C         190.9730  173.7474  239.0856 C.3      98        0    0.0000
   1493 H         193.1777  171.6583  238.7414 H        98        0    0.0000
   1494 H         192.3606  171.7215  240.3096 H        98        0    0.0000
   1495 H         191.9020  169.6975  238.0754 H        98        0    0.0000
   1496 H         192.3102  169.3678  239.7716 H        98        0    0.0000
   1497 H         190.1886  170.2333  240.5548 H        98        0    0.0000
   1498 H         189.6508  168.7100  237.9414 H        98        0    0.0000
   1499 H         189.9097  167.9970  239.5285 H        98        0    0.0000
   1500 H         189.3549  171.2522  237.8292 H        98        0    0.0000
   1501 H         189.0526  171.9289  239.4257 H        98        0    0.0000
   1502 H         191.2755  172.3270  237.5351 H        98        0    0.0000
   1503 H         191.2532  173.8056  240.1440 H        98        0    0.0000
   1504 H         189.9253  174.0642  239.0203 H        98        0    0.0000
   1505 C         191.7859  175.9382  234.6814 C.3      99        0    0.0000
   1506 C         191.5218  176.2010  236.1561 C.3      99        0    0.0000
   1507 C         191.5318  174.7986  236.7775 C.3      99        0    0.0000
   1508 C         191.8473  174.7491  238.2778 C.3      99        0    0.0000
   1509 C         192.4551  173.9506  235.8786 C.3      99        0    0.0000
   1510 C         192.8767  174.8657  234.7144 C.3      99        0    0.0000
   1511 C         193.0303  174.1571  233.3664 C.3      99        0    0.0000
   1512 H         190.8775  175.5641  234.1937 H        99        0    0.0000
   1513 H         192.1098  176.8418  234.1559 H        99        0    0.0000
   1514 H         192.3147  176.8385  236.5621 H        99        0    0.0000
   1515 H         190.5671  176.7120  236.3154 H        99        0    0.0000
   1516 H         190.5176  174.3884  236.6608 H        99        0    0.0000
   1517 H         192.9021  174.4805  238.4108 H        99        0    0.0000
   1518 H         191.7225  175.7518  238.7035 H        99        0    0.0000
   1519 H         191.8970  173.0785  235.5158 H        99        0    0.0000
   1520 H         193.3344  173.5668  236.4067 H        99        0    0.0000
   1521 H         193.8268  175.3491  234.9848 H        99        0    0.0000
   1522 H         192.0988  173.6431  233.1010 H        99        0    0.0000
   1523 H         193.2120  174.9030  232.5835 H        99        0    0.0000
   1524 H         193.8503  173.4389  233.3625 H        99        0    0.0000
   1525 H         165.3407  183.5098   54.8278 H         0        0    0.0000
@<TRIPOS>BOND
     1     1     2      1
     2     1     6      1
     3     1     8      1
     4     1     9      1
     5     2     3      1
     6     2    10      1
     7     2    11      1
     8     3     4      1
     9     3     5      1
    10     3    12      1
    11     4    13      1
    12     4    14      1
    13     4  1525      H
    14     5     6      1
    15     5    15      1
    16     5    16      1
    17     6     7      1
    18     6    17      1
    19     7    18      1
    20     7    19      1
    21     7    23      1
    22    20    21      1
    23    20    25      1
    24    20    27      1
    25    20    28      1
    26    21    22      1
    27    21    29      1
    28    21    30      1
    29    22    23      1
    30    22    24      1
    31    22    31      1
    32    23    32      1
    33    23    33      1
    34    24    25      1
    35    24    34      1
    36    24    35      1
    37    25    26      1
    38    25    36      1
    39    26    37      1
    40    26    38      1
    41    26    39      1
    42    39    40      1
    43    39    41      1
    44    39    42      1
    45    40    43      1
    46    40    44      1
    47    40    48      1
    48    45    46      1
    49    45    50      1
    50    45    52      1
    51    45    53      1
    52    46    47      1
    53    46    54      1
    54    46    55      1
    55    47    48      1
    56    47    49      1
    57    47    56      1
    58    48    57      1
    59    48    58      1
    60    49    50      1
    61    49    59      1
    62    49    60      1
    63    50    51      1
    64    50    61      1
    65    51    62      1
    66    51    63      1
    67    51    64      1
    68    64    65      1
    69    64    66      1
    70    64    67      1
    71    65    68      1
    72    65    69      1
    73    65    73      1
    74    70    71      1
    75    70    75      1
    76    70    77      1
    77    70    78      1
    78    71    72      1
    79    71    79      1
    80    71    80      1
    81    72    73      1
    82    72    74      1
    83    72    81      1
    84    73    82      1
    85    73    83      1
    86    74    75      1
    87    74    84      1
    88    74    85      1
    89    75    76      1
    90    75    86      1
    91    76    87      1
    92    76    88      1
    93    76    92      1
    94    89    90      1
    95    89    94      1
    96    89    96      1
    97    89    97      1
    98    90    91      1
    99    90    98      1
   100    90    99      1
   101    91    92      1
   102    91    93      1
   103    91   100      1
   104    92   101      1
   105    92   102      1
   106    93    94      1
   107    93   103      1
   108    93   104      1
   109    94    95      1
   110    94   105      1
   111    95   106      1
   112    95   107      1
   113    95   108      1
   114   108   109      1
   115   108   110      1
   116   108   111      1
   117   109   112      1
   118   109   113      1
   119   109   114      1
   120   114   115      1
   121   114   116      1
   122   114   117      1
   123   115   118      1
   124   115   119      1
   125   115   120      1
   126   120   121      1
   127   120   122      1
   128   120   123      1
   129   121   124      1
   130   121   125      1
   131   121   126      1
   132   126   127      1
   133   126   128      1
   134   126   129      1
   135   127   130      1
   136   127   131      1
   137   127   135      1
   138   132   133      1
   139   132   137      1
   140   132   139      1
   141   132   140      1
   142   133   134      1
   143   133   141      1
   144   133   142      1
   145   134   135      1
   146   134   136      1
   147   134   143      1
   148   135   144      1
   149   135   145      1
   150   136   137      1
   151   136   146      1
   152   136   147      1
   153   137   138      1
   154   137   148      1
   155   138   149      1
   156   138   150      1
   157   138   154      1
   158   151   152      1
   159   151   156      1
   160   151   158      1
   161   151   159      1
   162   152   153      1
   163   152   160      1
   164   152   161      1
   165   153   154      1
   166   153   155      1
   167   153   162      1
   168   154   163      1
   169   154   164      1
   170   155   156      1
   171   155   165      1
   172   155   166      1
   173   156   157      1
   174   156   167      1
   175   157   168      1
   176   157   169      1
   177   157   170      1
   178   170   171      1
   179   170   172      1
   180   170   173      1
   181   171   174      1
   182   171   175      1
   183   171   179      1
   184   176   177      1
   185   176   181      1
   186   176   183      1
   187   176   184      1
   188   177   178      1
   189   177   185      1
   190   177   186      1
   191   178   179      1
   192   178   180      1
   193   178   187      1
   194   179   188      1
   195   179   189      1
   196   180   181      1
   197   180   190      1
   198   180   191      1
   199   181   182      1
   200   181   192      1
   201   182   193      1
   202   182   194      1
   203   182   195      1
   204   195   196      1
   205   195   197      1
   206   195   198      1
   207   196   199      1
   208   196   200      1
   209   196   204      1
   210   201   202      1
   211   201   206      1
   212   201   208      1
   213   201   209      1
   214   202   203      1
   215   202   210      1
   216   202   211      1
   217   203   204      1
   218   203   205      1
   219   203   212      1
   220   204   213      1
   221   204   214      1
   222   205   206      1
   223   205   215      1
   224   205   216      1
   225   206   207      1
   226   206   217      1
   227   207   218      1
   228   207   219      1
   229   207   223      1
   230   220   221      1
   231   220   225      1
   232   220   227      1
   233   220   228      1
   234   221   222      1
   235   221   229      1
   236   221   230      1
   237   222   223      1
   238   222   224      1
   239   222   231      1
   240   223   232      1
   241   223   233      1
   242   224   225      1
   243   224   234      1
   244   224   235      1
   245   225   226      1
   246   225   236      1
   247   226   237      1
   248   226   238      1
   249   226   242      1
   250   239   240      1
   251   239   244      1
   252   239   246      1
   253   239   247      1
   254   240   241      1
   255   240   248      1
   256   240   249      1
   257   241   242      1
   258   241   243      1
   259   241   250      1
   260   242   251      1
   261   242   252      1
   262   243   244      1
   263   243   253      1
   264   243   254      1
   265   244   245      1
   266   244   255      1
   267   245   256      1
   268   245   257      1
   269   245   261      1
   270   258   259      1
   271   258   263      1
   272   258   265      1
   273   258   266      1
   274   259   260      1
   275   259   267      1
   276   259   268      1
   277   260   261      1
   278   260   262      1
   279   260   269      1
   280   261   270      1
   281   261   271      1
   282   262   263      1
   283   262   272      1
   284   262   273      1
   285   263   264      1
   286   263   274      1
   287   264   275      1
   288   264   276      1
   289   264   277      1
   290   277   278      1
   291   277   279      1
   292   277   280      1
   293   278   281      1
   294   278   282      1
   295   278   286      1
   296   283   284      1
   297   283   288      1
   298   283   290      1
   299   283   291      1
   300   284   285      1
   301   284   292      1
   302   284   293      1
   303   285   286      1
   304   285   287      1
   305   285   294      1
   306   286   295      1
   307   286   296      1
   308   287   288      1
   309   287   297      1
   310   287   298      1
   311   288   289      1
   312   288   299      1
   313   289   300      1
   314   289   301      1
   315   289   305      1
   316   302   303      1
   317   302   307      1
   318   302   309      1
   319   302   310      1
   320   303   304      1
   321   303   311      1
   322   303   312      1
   323   304   305      1
   324   304   306      1
   325   304   313      1
   326   305   314      1
   327   305   315      1
   328   306   307      1
   329   306   316      1
   330   306   317      1
   331   307   308      1
   332   307   318      1
   333   308   319      1
   334   308   320      1
   335   308   324      1
   336   321   322      1
   337   321   326      1
   338   321   328      1
   339   321   329      1
   340   322   323      1
   341   322   330      1
   342   322   331      1
   343   323   324      1
   344   323   325      1
   345   323   332      1
   346   324   333      1
   347   324   334      1
   348   325   326      1
   349   325   335      1
   350   325   336      1
   351   326   327      1
   352   326   337      1
   353   327   338      1
   354   327   339      1
   355   327   343      1
   356   340   341      1
   357   340   345      1
   358   340   347      1
   359   340   348      1
   360   341   342      1
   361   341   349      1
   362   341   350      1
   363   342   343      1
   364   342   344      1
   365   342   351      1
   366   343   352      1
   367   343   353      1
   368   344   345      1
   369   344   354      1
   370   344   355      1
   371   345   346      1
   372   345   356      1
   373   346   357      1
   374   346   358      1
   375   346   362      1
   376   359   360      1
   377   359   364      1
   378   359   366      1
   379   359   367      1
   380   360   361      1
   381   360   368      1
   382   360   369      1
   383   361   362      1
   384   361   363      1
   385   361   370      1
   386   362   371      1
   387   362   372      1
   388   363   364      1
   389   363   373      1
   390   363   374      1
   391   364   365      1
   392   364   375      1
   393   365   376      1
   394   365   377      1
   395   365   381      1
   396   378   379      1
   397   378   383      1
   398   378   385      1
   399   378   386      1
   400   379   380      1
   401   379   387      1
   402   379   388      1
   403   380   381      1
   404   380   382      1
   405   380   389      1
   406   381   390      1
   407   381   391      1
   408   382   383      1
   409   382   392      1
   410   382   393      1
   411   383   384      1
   412   383   394      1
   413   384   395      1
   414   384   396      1
   415   384   397      1
   416   397   398      1
   417   397   399      1
   418   397   400      1
   419   398   401      1
   420   398   402      1
   421   398   406      1
   422   403   404      1
   423   403   408      1
   424   403   410      1
   425   403   411      1
   426   404   405      1
   427   404   412      1
   428   404   413      1
   429   405   406      1
   430   405   407      1
   431   405   414      1
   432   406   415      1
   433   406   416      1
   434   407   408      1
   435   407   417      1
   436   407   418      1
   437   408   409      1
   438   408   419      1
   439   409   420      1
   440   409   421      1
   441   409   425      1
   442   422   423      1
   443   422   427      1
   444   422   429      1
   445   422   430      1
   446   423   424      1
   447   423   431      1
   448   423   432      1
   449   424   425      1
   450   424   426      1
   451   424   433      1
   452   425   434      1
   453   425   435      1
   454   426   427      1
   455   426   436      1
   456   426   437      1
   457   427   428      1
   458   427   438      1
   459   428   439      1
   460   428   440      1
   461   428   444      1
   462   441   442      1
   463   441   446      1
   464   441   448      1
   465   441   449      1
   466   442   443      1
   467   442   450      1
   468   442   451      1
   469   443   444      1
   470   443   445      1
   471   443   452      1
   472   444   453      1
   473   444   454      1
   474   445   446      1
   475   445   455      1
   476   445   456      1
   477   446   447      1
   478   446   457      1
   479   447   458      1
   480   447   459      1
   481   447   463      1
   482   460   461      1
   483   460   465      1
   484   460   467      1
   485   460   468      1
   486   461   462      1
   487   461   469      1
   488   461   470      1
   489   462   463      1
   490   462   464      1
   491   462   471      1
   492   463   472      1
   493   463   473      1
   494   464   465      1
   495   464   474      1
   496   464   475      1
   497   465   466      1
   498   465   476      1
   499   466   477      1
   500   466   478      1
   501   466   479      1
   502   479   480      1
   503   479   481      1
   504   479   482      1
   505   480   483      1
   506   480   484      1
   507   480   488      1
   508   485   486      1
   509   485   490      1
   510   485   492      1
   511   485   493      1
   512   486   487      1
   513   486   494      1
   514   486   495      1
   515   487   488      1
   516   487   489      1
   517   487   496      1
   518   488   497      1
   519   488   498      1
   520   489   490      1
   521   489   499      1
   522   489   500      1
   523   490   491      1
   524   490   501      1
   525   491   502      1
   526   491   503      1
   527   491   507      1
   528   504   505      1
   529   504   509      1
   530   504   511      1
   531   504   512      1
   532   505   506      1
   533   505   513      1
   534   505   514      1
   535   506   507      1
   536   506   508      1
   537   506   515      1
   538   507   516      1
   539   507   517      1
   540   508   509      1
   541   508   518      1
   542   508   519      1
   543   509   510      1
   544   509   520      1
   545   510   521      1
   546   510   522      1
   547   510   526      1
   548   523   524      1
   549   523   528      1
   550   523   530      1
   551   523   531      1
   552   524   525      1
   553   524   532      1
   554   524   533      1
   555   525   526      1
   556   525   527      1
   557   525   534      1
   558   526   535      1
   559   526   536      1
   560   527   528      1
   561   527   537      1
   562   527   538      1
   563   528   529      1
   564   528   539      1
   565   529   540      1
   566   529   541      1
   567   529   545      1
   568   542   543      1
   569   542   547      1
   570   542   549      1
   571   542   550      1
   572   543   544      1
   573   543   551      1
   574   543   552      1
   575   544   545      1
   576   544   546      1
   577   544   553      1
   578   545   554      1
   579   545   555      1
   580   546   547      1
   581   546   556      1
   582   546   557      1
   583   547   548      1
   584   547   558      1
   585   548   559      1
   586   548   560      1
   587   548   564      1
   588   561   562      1
   589   561   566      1
   590   561   568      1
   591   561   569      1
   592   562   563      1
   593   562   570      1
   594   562   571      1
   595   563   564      1
   596   563   565      1
   597   563   572      1
   598   564   573      1
   599   564   574      1
   600   565   566      1
   601   565   575      1
   602   565   576      1
   603   566   567      1
   604   566   577      1
   605   567   578      1
   606   567   579      1
   607   567   583      1
   608   580   581      1
   609   580   585      1
   610   580   587      1
   611   580   588      1
   612   581   582      1
   613   581   589      1
   614   581   590      1
   615   582   583      1
   616   582   584      1
   617   582   591      1
   618   583   592      1
   619   583   593      1
   620   584   585      1
   621   584   594      1
   622   584   595      1
   623   585   586      1
   624   585   596      1
   625   586   597      1
   626   586   598      1
   627   586   602      1
   628   599   600      1
   629   599   604      1
   630   599   606      1
   631   599   607      1
   632   600   601      1
   633   600   608      1
   634   600   609      1
   635   601   602      1
   636   601   603      1
   637   601   610      1
   638   602   611      1
   639   602   612      1
   640   603   604      1
   641   603   613      1
   642   603   614      1
   643   604   605      1
   644   604   615      1
   645   605   616      1
   646   605   617      1
   647   605   621      1
   648   618   619      1
   649   618   623      1
   650   618   625      1
   651   618   626      1
   652   619   620      1
   653   619   627      1
   654   619   628      1
   655   620   621      1
   656   620   622      1
   657   620   629      1
   658   621   630      1
   659   621   631      1
   660   622   623      1
   661   622   632      1
   662   622   633      1
   663   623   624      1
   664   623   634      1
   665   624   635      1
   666   624   636      1
   667   624   640      1
   668   637   638      1
   669   637   642      1
   670   637   644      1
   671   637   645      1
   672   638   639      1
   673   638   646      1
   674   638   647      1
   675   639   640      1
   676   639   641      1
   677   639   648      1
   678   640   649      1
   679   640   650      1
   680   641   642      1
   681   641   651      1
   682   641   652      1
   683   642   643      1
   684   642   653      1
   685   643   654      1
   686   643   655      1
   687   643   659      1
   688   656   657      1
   689   656   661      1
   690   656   663      1
   691   656   664      1
   692   657   658      1
   693   657   665      1
   694   657   666      1
   695   658   659      1
   696   658   660      1
   697   658   667      1
   698   659   668      1
   699   659   669      1
   700   660   661      1
   701   660   670      1
   702   660   671      1
   703   661   662      1
   704   661   672      1
   705   662   673      1
   706   662   674      1
   707   662   675      1
   708   675   676      1
   709   675   677      1
   710   675   678      1
   711   676   679      1
   712   676   680      1
   713   676   684      1
   714   681   682      1
   715   681   686      1
   716   681   688      1
   717   681   689      1
   718   682   683      1
   719   682   690      1
   720   682   691      1
   721   683   684      1
   722   683   685      1
   723   683   692      1
   724   684   693      1
   725   684   694      1
   726   685   686      1
   727   685   695      1
   728   685   696      1
   729   686   687      1
   730   686   697      1
   731   687   698      1
   732   687   699      1
   733   687   703      1
   734   700   701      1
   735   700   705      1
   736   700   707      1
   737   700   708      1
   738   701   702      1
   739   701   709      1
   740   701   710      1
   741   702   703      1
   742   702   704      1
   743   702   711      1
   744   703   712      1
   745   703   713      1
   746   704   705      1
   747   704   714      1
   748   704   715      1
   749   705   706      1
   750   705   716      1
   751   706   717      1
   752   706   718      1
   753   706   722      1
   754   719   720      1
   755   719   724      1
   756   719   726      1
   757   719   727      1
   758   720   721      1
   759   720   728      1
   760   720   729      1
   761   721   722      1
   762   721   723      1
   763   721   730      1
   764   722   731      1
   765   722   732      1
   766   723   724      1
   767   723   733      1
   768   723   734      1
   769   724   725      1
   770   724   735      1
   771   725   736      1
   772   725   737      1
   773   725   741      1
   774   738   739      1
   775   738   743      1
   776   738   745      1
   777   738   746      1
   778   739   740      1
   779   739   747      1
   780   739   748      1
   781   740   741      1
   782   740   742      1
   783   740   749      1
   784   741   750      1
   785   741   751      1
   786   742   743      1
   787   742   752      1
   788   742   753      1
   789   743   744      1
   790   743   754      1
   791   744   755      1
   792   744   756      1
   793   744   760      1
   794   757   758      1
   795   757   762      1
   796   757   764      1
   797   757   765      1
   798   758   759      1
   799   758   766      1
   800   758   767      1
   801   759   760      1
   802   759   761      1
   803   759   768      1
   804   760   769      1
   805   760   770      1
   806   761   762      1
   807   761   771      1
   808   761   772      1
   809   762   763      1
   810   762   773      1
   811   763   774      1
   812   763   775      1
   813   763   779      1
   814   776   777      1
   815   776   781      1
   816   776   783      1
   817   776   784      1
   818   777   778      1
   819   777   785      1
   820   777   786      1
   821   778   779      1
   822   778   780      1
   823   778   787      1
   824   779   788      1
   825   779   789      1
   826   780   781      1
   827   780   790      1
   828   780   791      1
   829   781   782      1
   830   781   792      1
   831   782   793      1
   832   782   794      1
   833   782   795      1
   834   795   796      1
   835   795   797      1
   836   795   798      1
   837   796   799      1
   838   796   800      1
   839   796   804      1
   840   801   802      1
   841   801   806      1
   842   801   808      1
   843   801   809      1
   844   802   803      1
   845   802   810      1
   846   802   811      1
   847   803   804      1
   848   803   805      1
   849   803   812      1
   850   804   813      1
   851   804   814      1
   852   805   806      1
   853   805   815      1
   854   805   816      1
   855   806   807      1
   856   806   817      1
   857   807   818      1
   858   807   819      1
   859   807   823      1
   860   820   821      1
   861   820   825      1
   862   820   827      1
   863   820   828      1
   864   821   822      1
   865   821   829      1
   866   821   830      1
   867   822   823      1
   868   822   824      1
   869   822   831      1
   870   823   832      1
   871   823   833      1
   872   824   825      1
   873   824   834      1
   874   824   835      1
   875   825   826      1
   876   825   836      1
   877   826   837      1
   878   826   838      1
   879   826   839      1
   880   839   840      1
   881   839   841      1
   882   839   842      1
   883   840   843      1
   884   840   844      1
   885   840   848      1
   886   845   846      1
   887   845   850      1
   888   845   852      1
   889   845   853      1
   890   846   847      1
   891   846   854      1
   892   846   855      1
   893   847   848      1
   894   847   849      1
   895   847   856      1
   896   848   857      1
   897   848   858      1
   898   849   850      1
   899   849   859      1
   900   849   860      1
   901   850   851      1
   902   850   861      1
   903   851   862      1
   904   851   863      1
   905   851   867      1
   906   864   865      1
   907   864   869      1
   908   864   871      1
   909   864   872      1
   910   865   866      1
   911   865   873      1
   912   865   874      1
   913   866   867      1
   914   866   868      1
   915   866   875      1
   916   867   876      1
   917   867   877      1
   918   868   869      1
   919   868   878      1
   920   868   879      1
   921   869   870      1
   922   869   880      1
   923   870   881      1
   924   870   882      1
   925   870   883      1
   926   883   884      1
   927   883   885      1
   928   883   886      1
   929   884   887      1
   930   884   888      1
   931   884   892      1
   932   889   890      1
   933   889   894      1
   934   889   896      1
   935   889   897      1
   936   890   891      1
   937   890   898      1
   938   890   899      1
   939   891   892      1
   940   891   893      1
   941   891   900      1
   942   892   901      1
   943   892   902      1
   944   893   894      1
   945   893   903      1
   946   893   904      1
   947   894   895      1
   948   894   905      1
   949   895   906      1
   950   895   907      1
   951   895   908      1
   952   908   909      1
   953   908   910      1
   954   908   911      1
   955   909   912      1
   956   909   913      1
   957   909   917      1
   958   914   915      1
   959   914   919      1
   960   914   921      1
   961   914   922      1
   962   915   916      1
   963   915   923      1
   964   915   924      1
   965   916   917      1
   966   916   918      1
   967   916   925      1
   968   917   926      1
   969   917   927      1
   970   918   919      1
   971   918   928      1
   972   918   929      1
   973   919   920      1
   974   919   930      1
   975   920   931      1
   976   920   932      1
   977   920   936      1
   978   933   934      1
   979   933   938      1
   980   933   940      1
   981   933   941      1
   982   934   935      1
   983   934   942      1
   984   934   943      1
   985   935   936      1
   986   935   937      1
   987   935   944      1
   988   936   945      1
   989   936   946      1
   990   937   938      1
   991   937   947      1
   992   937   948      1
   993   938   939      1
   994   938   949      1
   995   939   950      1
   996   939   951      1
   997   939   955      1
   998   952   953      1
   999   952   957      1
  1000   952   959      1
  1001   952   960      1
  1002   953   954      1
  1003   953   961      1
  1004   953   962      1
  1005   954   955      1
  1006   954   956      1
  1007   954   963      1
  1008   955   964      1
  1009   955   965      1
  1010   956   957      1
  1011   956   966      1
  1012   956   967      1
  1013   957   958      1
  1014   957   968      1
  1015   958   969      1
  1016   958   970      1
  1017   958   971      1
  1018   971   972      1
  1019   971   973      1
  1020   971   974      1
  1021   972   975      1
  1022   972   976      1
  1023   972   980      1
  1024   977   978      1
  1025   977   982      1
  1026   977   984      1
  1027   977   985      1
  1028   978   979      1
  1029   978   986      1
  1030   978   987      1
  1031   979   980      1
  1032   979   981      1
  1033   979   988      1
  1034   980   989      1
  1035   980   990      1
  1036   981   982      1
  1037   981   991      1
  1038   981   992      1
  1039   982   983      1
  1040   982   993      1
  1041   983   994      1
  1042   983   995      1
  1043   983   999      1
  1044   996   997      1
  1045   996  1001      1
  1046   996  1003      1
  1047   996  1004      1
  1048   997   998      1
  1049   997  1005      1
  1050   997  1006      1
  1051   998   999      1
  1052   998  1000      1
  1053   998  1007      1
  1054   999  1008      1
  1055   999  1009      1
  1056  1000  1001      1
  1057  1000  1010      1
  1058  1000  1011      1
  1059  1001  1002      1
  1060  1001  1012      1
  1061  1002  1013      1
  1062  1002  1014      1
  1063  1002  1015      1
  1064  1015  1016      1
  1065  1015  1017      1
  1066  1015  1018      1
  1067  1016  1019      1
  1068  1016  1020      1
  1069  1016  1024      1
  1070  1021  1022      1
  1071  1021  1026      1
  1072  1021  1028      1
  1073  1021  1029      1
  1074  1022  1023      1
  1075  1022  1030      1
  1076  1022  1031      1
  1077  1023  1024      1
  1078  1023  1025      1
  1079  1023  1032      1
  1080  1024  1033      1
  1081  1024  1034      1
  1082  1025  1026      1
  1083  1025  1035      1
  1084  1025  1036      1
  1085  1026  1027      1
  1086  1026  1037      1
  1087  1027  1038      1
  1088  1027  1039      1
  1089  1027  1043      1
  1090  1040  1041      1
  1091  1040  1045      1
  1092  1040  1047      1
  1093  1040  1048      1
  1094  1041  1042      1
  1095  1041  1049      1
  1096  1041  1050      1
  1097  1042  1043      1
  1098  1042  1044      1
  1099  1042  1051      1
  1100  1043  1052      1
  1101  1043  1053      1
  1102  1044  1045      1
  1103  1044  1054      1
  1104  1044  1055      1
  1105  1045  1046      1
  1106  1045  1056      1
  1107  1046  1057      1
  1108  1046  1058      1
  1109  1046  1059      1
  1110  1059  1060      1
  1111  1059  1061      1
  1112  1059  1062      1
  1113  1060  1063      1
  1114  1060  1064      1
  1115  1060  1068      1
  1116  1065  1066      1
  1117  1065  1070      1
  1118  1065  1072      1
  1119  1065  1073      1
  1120  1066  1067      1
  1121  1066  1074      1
  1122  1066  1075      1
  1123  1067  1068      1
  1124  1067  1069      1
  1125  1067  1076      1
  1126  1068  1077      1
  1127  1068  1078      1
  1128  1069  1070      1
  1129  1069  1079      1
  1130  1069  1080      1
  1131  1070  1071      1
  1132  1070  1081      1
  1133  1071  1082      1
  1134  1071  1083      1
  1135  1071  1087      1
  1136  1084  1085      1
  1137  1084  1089      1
  1138  1084  1091      1
  1139  1084  1092      1
  1140  1085  1086      1
  1141  1085  1093      1
  1142  1085  1094      1
  1143  1086  1087      1
  1144  1086  1088      1
  1145  1086  1095      1
  1146  1087  1096      1
  1147  1087  1097      1
  1148  1088  1089      1
  1149  1088  1098      1
  1150  1088  1099      1
  1151  1089  1090      1
  1152  1089  1100      1
  1153  1090  1101      1
  1154  1090  1102      1
  1155  1090  1103      1
  1156  1103  1104      1
  1157  1103  1105      1
  1158  1103  1106      1
  1159  1104  1107      1
  1160  1104  1108      1
  1161  1104  1109      1
  1162  1109  1110      1
  1163  1109  1111      1
  1164  1109  1112      1
  1165  1110  1113      1
  1166  1110  1114      1
  1167  1110  1118      1
  1168  1115  1116      1
  1169  1115  1120      1
  1170  1115  1122      1
  1171  1115  1123      1
  1172  1116  1117      1
  1173  1116  1124      1
  1174  1116  1125      1
  1175  1117  1118      1
  1176  1117  1119      1
  1177  1117  1126      1
  1178  1118  1127      1
  1179  1118  1128      1
  1180  1119  1120      1
  1181  1119  1129      1
  1182  1119  1130      1
  1183  1120  1121      1
  1184  1120  1131      1
  1185  1121  1132      1
  1186  1121  1133      1
  1187  1121  1137      1
  1188  1134  1135      1
  1189  1134  1139      1
  1190  1134  1141      1
  1191  1134  1142      1
  1192  1135  1136      1
  1193  1135  1143      1
  1194  1135  1144      1
  1195  1136  1137      1
  1196  1136  1138      1
  1197  1136  1145      1
  1198  1137  1146      1
  1199  1137  1147      1
  1200  1138  1139      1
  1201  1138  1148      1
  1202  1138  1149      1
  1203  1139  1140      1
  1204  1139  1150      1
  1205  1140  1151      1
  1206  1140  1152      1
  1207  1140  1153      1
  1208  1153  1154      1
  1209  1153  1155      1
  1210  1153  1156      1
  1211  1154  1157      1
  1212  1154  1158      1
  1213  1154  1162      1
  1214  1159  1160      1
  1215  1159  1164      1
  1216  1159  1166      1
  1217  1159  1167      1
  1218  1160  1161      1
  1219  1160  1168      1
  1220  1160  1169      1
  1221  1161  1162      1
  1222  1161  1163      1
  1223  1161  1170      1
  1224  1162  1171      1
  1225  1162  1172      1
  1226  1163  1164      1
  1227  1163  1173      1
  1228  1163  1174      1
  1229  1164  1165      1
  1230  1164  1175      1
  1231  1165  1176      1
  1232  1165  1177      1
  1233  1165  1181      1
  1234  1178  1179      1
  1235  1178  1183      1
  1236  1178  1185      1
  1237  1178  1186      1
  1238  1179  1180      1
  1239  1179  1187      1
  1240  1179  1188      1
  1241  1180  1181      1
  1242  1180  1182      1
  1243  1180  1189      1
  1244  1181  1190      1
  1245  1181  1191      1
  1246  1182  1183      1
  1247  1182  1192      1
  1248  1182  1193      1
  1249  1183  1184      1
  1250  1183  1194      1
  1251  1184  1195      1
  1252  1184  1196      1
  1253  1184  1200      1
  1254  1197  1198      1
  1255  1197  1202      1
  1256  1197  1204      1
  1257  1197  1205      1
  1258  1198  1199      1
  1259  1198  1206      1
  1260  1198  1207      1
  1261  1199  1200      1
  1262  1199  1201      1
  1263  1199  1208      1
  1264  1200  1209      1
  1265  1200  1210      1
  1266  1201  1202      1
  1267  1201  1211      1
  1268  1201  1212      1
  1269  1202  1203      1
  1270  1202  1213      1
  1271  1203  1214      1
  1272  1203  1215      1
  1273  1203  1219      1
  1274  1216  1217      1
  1275  1216  1221      1
  1276  1216  1223      1
  1277  1216  1224      1
  1278  1217  1218      1
  1279  1217  1225      1
  1280  1217  1226      1
  1281  1218  1219      1
  1282  1218  1220      1
  1283  1218  1227      1
  1284  1219  1228      1
  1285  1219  1229      1
  1286  1220  1221      1
  1287  1220  1230      1
  1288  1220  1231      1
  1289  1221  1222      1
  1290  1221  1232      1
  1291  1222  1233      1
  1292  1222  1234      1
  1293  1222  1235      1
  1294  1235  1236      1
  1295  1235  1237      1
  1296  1235  1238      1
  1297  1236  1239      1
  1298  1236  1240      1
  1299  1236  1244      1
  1300  1241  1242      1
  1301  1241  1246      1
  1302  1241  1248      1
  1303  1241  1249      1
  1304  1242  1243      1
  1305  1242  1250      1
  1306  1242  1251      1
  1307  1243  1244      1
  1308  1243  1245      1
  1309  1243  1252      1
  1310  1244  1253      1
  1311  1244  1254      1
  1312  1245  1246      1
  1313  1245  1255      1
  1314  1245  1256      1
  1315  1246  1247      1
  1316  1246  1257      1
  1317  1247  1258      1
  1318  1247  1259      1
  1319  1247  1260      1
  1320  1260  1261      1
  1321  1260  1262      1
  1322  1260  1263      1
  1323  1261  1264      1
  1324  1261  1265      1
  1325  1261  1269      1
  1326  1266  1267      1
  1327  1266  1271      1
  1328  1266  1273      1
  1329  1266  1274      1
  1330  1267  1268      1
  1331  1267  1275      1
  1332  1267  1276      1
  1333  1268  1269      1
  1334  1268  1270      1
  1335  1268  1277      1
  1336  1269  1278      1
  1337  1269  1279      1
  1338  1270  1271      1
  1339  1270  1280      1
  1340  1270  1281      1
  1341  1271  1272      1
  1342  1271  1282      1
  1343  1272  1283      1
  1344  1272  1284      1
  1345  1272  1288      1
  1346  1285  1286      1
  1347  1285  1290      1
  1348  1285  1292      1
  1349  1285  1293      1
  1350  1286  1287      1
  1351  1286  1294      1
  1352  1286  1295      1
  1353  1287  1288      1
  1354  1287  1289      1
  1355  1287  1296      1
  1356  1288  1297      1
  1357  1288  1298      1
  1358  1289  1290      1
  1359  1289  1299      1
  1360  1289  1300      1
  1361  1290  1291      1
  1362  1290  1301      1
  1363  1291  1302      1
  1364  1291  1303      1
  1365  1291  1307      1
  1366  1304  1305      1
  1367  1304  1309      1
  1368  1304  1311      1
  1369  1304  1312      1
  1370  1305  1306      1
  1371  1305  1313      1
  1372  1305  1314      1
  1373  1306  1307      1
  1374  1306  1308      1
  1375  1306  1315      1
  1376  1307  1316      1
  1377  1307  1317      1
  1378  1308  1309      1
  1379  1308  1318      1
  1380  1308  1319      1
  1381  1309  1310      1
  1382  1309  1320      1
  1383  1310  1321      1
  1384  1310  1322      1
  1385  1310  1326      1
  1386  1323  1324      1
  1387  1323  1328      1
  1388  1323  1330      1
  1389  1323  1331      1
  1390  1324  1325      1
  1391  1324  1332      1
  1392  1324  1333      1
  1393  1325  1326      1
  1394  1325  1327      1
  1395  1325  1334      1
  1396  1326  1335      1
  1397  1326  1336      1
  1398  1327  1328      1
  1399  1327  1337      1
  1400  1327  1338      1
  1401  1328  1329      1
  1402  1328  1339      1
  1403  1329  1340      1
  1404  1329  1341      1
  1405  1329  1342      1
  1406  1342  1343      1
  1407  1342  1344      1
  1408  1342  1345      1
  1409  1343  1346      1
  1410  1343  1347      1
  1411  1343  1348      1
  1412  1348  1349      1
  1413  1348  1350      1
  1414  1348  1351      1
  1415  1349  1352      1
  1416  1349  1353      1
  1417  1349  1357      1
  1418  1354  1355      1
  1419  1354  1359      1
  1420  1354  1361      1
  1421  1354  1362      1
  1422  1355  1356      1
  1423  1355  1363      1
  1424  1355  1364      1
  1425  1356  1357      1
  1426  1356  1358      1
  1427  1356  1365      1
  1428  1357  1366      1
  1429  1357  1367      1
  1430  1358  1359      1
  1431  1358  1368      1
  1432  1358  1369      1
  1433  1359  1360      1
  1434  1359  1370      1
  1435  1360  1371      1
  1436  1360  1372      1
  1437  1360  1373      1
  1438  1373  1374      1
  1439  1373  1375      1
  1440  1373  1376      1
  1441  1374  1377      1
  1442  1374  1378      1
  1443  1374  1382      1
  1444  1379  1380      1
  1445  1379  1384      1
  1446  1379  1386      1
  1447  1379  1387      1
  1448  1380  1381      1
  1449  1380  1388      1
  1450  1380  1389      1
  1451  1381  1382      1
  1452  1381  1383      1
  1453  1381  1390      1
  1454  1382  1391      1
  1455  1382  1392      1
  1456  1383  1384      1
  1457  1383  1393      1
  1458  1383  1394      1
  1459  1384  1385      1
  1460  1384  1395      1
  1461  1385  1396      1
  1462  1385  1397      1
  1463  1385  1398      1
  1464  1398  1399      1
  1465  1398  1400      1
  1466  1398  1401      1
  1467  1399  1402      1
  1468  1399  1403      1
  1469  1399  1404      1
  1470  1404  1405      1
  1471  1404  1406      1
  1472  1404  1407      1
  1473  1405  1408      1
  1474  1405  1409      1
  1475  1405  1413      1
  1476  1410  1411      1
  1477  1410  1415      1
  1478  1410  1417      1
  1479  1410  1418      1
  1480  1411  1412      1
  1481  1411  1419      1
  1482  1411  1420      1
  1483  1412  1413      1
  1484  1412  1414      1
  1485  1412  1421      1
  1486  1413  1422      1
  1487  1413  1423      1
  1488  1414  1415      1
  1489  1414  1424      1
  1490  1414  1425      1
  1491  1415  1416      1
  1492  1415  1426      1
  1493  1416  1427      1
  1494  1416  1428      1
  1495  1416  1432      1
  1496  1429  1430      1
  1497  1429  1434      1
  1498  1429  1436      1
  1499  1429  1437      1
  1500  1430  1431      1
  1501  1430  1438      1
  1502  1430  1439      1
  1503  1431  1432      1
  1504  1431  1433      1
  1505  1431  1440      1
  1506  1432  1441      1
  1507  1432  1442      1
  1508  1433  1434      1
  1509  1433  1443      1
  1510  1433  1444      1
  1511  1434  1435      1
  1512  1434  1445      1
  1513  1435  1446      1
  1514  1435  1447      1
  1515  1435  1451      1
  1516  1448  1449      1
  1517  1448  1453      1
  1518  1448  1455      1
  1519  1448  1456      1
  1520  1449  1450      1
  1521  1449  1457      1
  1522  1449  1458      1
  1523  1450  1451      1
  1524  1450  1452      1
  1525  1450  1459      1
  1526  1451  1460      1
  1527  1451  1461      1
  1528  1452  1453      1
  1529  1452  1462      1
  1530  1452  1463      1
  1531  1453  1454      1
  1532  1453  1464      1
  1533  1454  1465      1
  1534  1454  1466      1
  1535  1454  1470      1
  1536  1467  1468      1
  1537  1467  1472      1
  1538  1467  1474      1
  1539  1467  1475      1
  1540  1468  1469      1
  1541  1468  1476      1
  1542  1468  1477      1
  1543  1469  1470      1
  1544  1469  1471      1
  1545  1469  1478      1
  1546  1470  1479      1
  1547  1470  1480      1
  1548  1471  1472      1
  1549  1471  1481      1
  1550  1471  1482      1
  1551  1472  1473      1
  1552  1472  1483      1
  1553  1473  1484      1
  1554  1473  1485      1
  1555  1473  1489      1
  1556  1486  1487      1
  1557  1486  1491      1
  1558  1486  1493      1
  1559  1486  1494      1
  1560  1487  1488      1
  1561  1487  1495      1
  1562  1487  1496      1
  1563  1488  1489      1
  1564  1488  1490      1
  1565  1488  1497      1
  1566  1489  1498      1
  1567  1489  1499      1
  1568  1490  1491      1
  1569  1490  1500      1
  1570  1490  1501      1
  1571  1491  1492      1
  1572  1491  1502      1
  1573  1492  1503      1
  1574  1492  1504      1
  1575  1492  1508      1
  1576  1505  1506      1
  1577  1505  1510      1
  1578  1505  1512      1
  1579  1505  1513      1
  1580  1506  1507      1
  1581  1506  1514      1
  1582  1506  1515      1
  1583  1507  1508      1
  1584  1507  1509      1
  1585  1507  1516      1
  1586  1508  1517      1
  1587  1508  1518      1
  1588  1509  1510      1
  1589  1509  1519      1
  1590  1509  1520      1
  1591  1510  1511      1
  1592  1510  1521      1
  1593  1511  1522      1
  1594  1511  1523      1
  1595  1511  1524      H
