###
### Created by PolyChef-cpp17 on Wed Feb 26 21:14:14 2025
###

@<TRIPOS>MOLECULE
NO_INFO
1601 1675 1 0 0
SMALL
USER_CHARGES


@<TRIPOS>ATOM
      1 C         110.2755  119.5760   57.8399 C.3       0        0    0.0000
      2 C         109.9109  118.8710   59.1389 C.3       0        0    0.0000
      3 C         110.4209  119.8417   60.2092 C.3       0        0    0.0000
      4 C         110.5674  119.2521   61.6153 C.3       0        0    0.0000
      5 C         111.6980  120.4669   59.6145 C.3       0        0    0.0000
      6 C         111.6895  120.0962   58.1185 C.3       0        0    0.0000
      7 C         112.1887  121.1862   57.1652 C.3       0        0    0.0000
      8 H         110.2492  118.8947   56.9837 H         0        0    0.0000
      9 H         109.5671  120.3897   57.6490 H         0        0    0.0000
     10 H         108.8336  118.6972   59.2213 H         0        0    0.0000
     11 H         110.4169  117.9006   59.1879 H         0        0    0.0000
     12 H         109.6790  120.6509   60.2854 H         0        0    0.0000
     13 H         111.0268  118.2593   61.5412 H         0        0    0.0000
     14 H         111.2575  119.8761   62.1955 H         0        0    0.0000
     15 H         112.6141  120.0881   60.0802 H         0        0    0.0000
     16 H         111.6894  121.5488   59.7850 H         0        0    0.0000
     17 H         112.3727  119.2415   58.0010 H         0        0    0.0000
     18 H         112.3731  120.7428   56.1795 H         0        0    0.0000
     19 H         111.3986  121.9345   57.0312 H         0        0    0.0000
     20 C         116.8045  120.5244   58.5600 C.3       1        0    0.0000
     21 C         115.5669  120.3829   57.6705 C.3       1        0    0.0000
     22 C         114.3867  120.9761   58.4607 C.3       1        0    0.0000
     23 C         113.4858  121.9074   57.6402 C.3       1        0    0.0000
     24 C         115.0421  121.6931   59.6454 C.3       1        0    0.0000
     25 C         116.2853  120.8553   59.9635 C.3       1        0    0.0000
     26 C         115.9523  119.6030   60.7966 C.3       1        0    0.0000
     27 H         117.4375  119.6328   58.5222 H         1        0    0.0000
     28 H         117.4090  121.3638   58.1931 H         1        0    0.0000
     29 H         115.7342  120.8874   56.7125 H         1        0    0.0000
     30 H         115.3739  119.3263   57.4507 H         1        0    0.0000
     31 H         113.7838  120.1458   58.8554 H         1        0    0.0000
     32 H         113.1996  122.7696   58.2543 H         1        0    0.0000
     33 H         114.0298  122.3011   56.7739 H         1        0    0.0000
     34 H         114.3610  121.7837   60.4977 H         1        0    0.0000
     35 H         115.3484  122.7068   59.3564 H         1        0    0.0000
     36 H         117.0151  121.4706   60.5048 H         1        0    0.0000
     37 H         116.6216  118.7722   60.5470 H         1        0    0.0000
     38 H         114.9331  119.2719   60.5645 H         1        0    0.0000
     39 C         116.0328  119.8876   62.3245 C.3       2        0    0.0000
     40 C         116.6998  118.7662   63.1337 C.3       2        0    0.0000
     41 H         116.6330  120.7984   62.4459 H         2        0    0.0000
     42 H         115.0328  120.1176   62.7106 H         2        0    0.0000
     43 H         115.9625  118.0342   63.4839 H         2        0    0.0000
     44 H         117.3852  118.2269   62.4674 H         2        0    0.0000
     45 C         118.7831  122.3037   62.5852 C.3       3        0    0.0000
     46 C         118.4753  120.8078   62.4844 C.3       3        0    0.0000
     47 C         118.6746  120.2215   63.8935 C.3       3        0    0.0000
     48 C         117.5543  119.2765   64.3454 C.3       3        0    0.0000
     49 C         118.8054  121.4478   64.8025 C.3       3        0    0.0000
     50 C         119.4918  122.5037   63.9293 C.3       3        0    0.0000
     51 C         121.0161  122.2971   63.8466 C.3       3        0    0.0000
     52 H         119.3583  122.6601   61.7254 H         3        0    0.0000
     53 H         117.8366  122.8594   62.5915 H         3        0    0.0000
     54 H         117.4598  120.6590   62.1012 H         3        0    0.0000
     55 H         119.1615  120.3238   61.7796 H         3        0    0.0000
     56 H         119.6317  119.6808   63.9100 H         3        0    0.0000
     57 H         117.9934  118.4086   64.8516 H         3        0    0.0000
     58 H         116.9044  119.7741   65.0743 H         3        0    0.0000
     59 H         119.3647  121.2230   65.7165 H         3        0    0.0000
     60 H         117.8130  121.8093   65.1015 H         3        0    0.0000
     61 H         119.2799  123.5043   64.3270 H         3        0    0.0000
     62 H         121.5016  123.1342   63.3328 H         3        0    0.0000
     63 H         121.2300  121.3960   63.2597 H         3        0    0.0000
     64 C         121.6522  122.1194   65.2558 C.3       4        0    0.0000
     65 C         123.1507  121.7865   65.2264 C.3       4        0    0.0000
     66 H         121.5256  123.0736   65.7831 H         4        0    0.0000
     67 H         121.0882  121.3702   65.8238 H         4        0    0.0000
     68 H         123.3809  121.0516   64.4461 H         4        0    0.0000
     69 H         123.6978  122.7018   64.9664 H         4        0    0.0000
     70 C         125.6211  118.9158   65.3704 C.3       5        0    0.0000
     71 C         125.5715  119.5632   66.7570 C.3       5        0    0.0000
     72 C         125.2394  121.0431   66.5367 C.3       5        0    0.0000
     73 C         123.7210  121.2935   66.6013 C.3       5        0    0.0000
     74 C         125.8699  121.3129   65.1645 C.3       5        0    0.0000
     75 C         125.5483  120.0602   64.3457 C.3       5        0    0.0000
     76 C         126.4825  119.8948   63.1417 C.3       5        0    0.0000
     77 H         126.5376  118.3231   65.2714 H         5        0    0.0000
     78 H         124.7759  118.2316   65.2340 H         5        0    0.0000
     79 H         126.5621  119.4796   67.2217 H         5        0    0.0000
     80 H         124.8632  119.0558   67.4199 H         5        0    0.0000
     81 H         125.7338  121.6533   67.3035 H         5        0    0.0000
     82 H         123.5145  122.0630   67.3550 H         5        0    0.0000
     83 H         123.1831  120.3937   66.9183 H         5        0    0.0000
     84 H         126.9561  121.4238   65.2793 H         5        0    0.0000
     85 H         125.4973  122.2216   64.6825 H         5        0    0.0000
     86 H         124.5126  120.1374   63.9862 H         5        0    0.0000
     87 H         126.2817  120.6707   62.3938 H         5        0    0.0000
     88 H         126.2871  118.9298   62.6591 H         5        0    0.0000
     89 C         127.8507  119.7561   67.3242 C.3       6        0    0.0000
     90 C         127.1514  119.8356   65.9647 C.3       6        0    0.0000
     91 C         128.1665  120.4528   64.9937 C.3       6        0    0.0000
     92 C         127.9800  119.9501   63.5595 C.3       6        0    0.0000
     93 C         129.5155  120.0942   65.6258 C.3       6        0    0.0000
     94 C         129.2592  120.3287   67.1182 C.3       6        0    0.0000
     95 C         130.2903  119.6876   68.0511 C.3       6        0    0.0000
     96 H         127.3053  120.3203   68.0884 H         6        0    0.0000
     97 H         127.8867  118.7114   67.6557 H         6        0    0.0000
     98 H         126.2404  120.4414   66.0180 H         6        0    0.0000
     99 H         126.8539  118.8288   65.6478 H         6        0    0.0000
    100 H         128.0459  121.5456   65.0210 H         6        0    0.0000
    101 H         128.4042  118.9427   63.4710 H         6        0    0.0000
    102 H         128.5312  120.5877   62.8584 H         6        0    0.0000
    103 H         130.3256  120.7247   65.2459 H         6        0    0.0000
    104 H         129.7740  119.0457   65.4315 H         6        0    0.0000
    105 H         129.2186  121.4124   67.3011 H         6        0    0.0000
    106 H         131.2226  119.4902   67.5092 H         6        0    0.0000
    107 H         129.9131  118.7172   68.3952 H         6        0    0.0000
    108 C         130.5915  120.5693   69.2940 C.3       7        0    0.0000
    109 C         131.8967  121.3711   69.1886 C.3       7        0    0.0000
    110 H         129.7612  121.2812   69.3862 H         7        0    0.0000
    111 H         130.5755  119.9504   70.1987 H         7        0    0.0000
    112 H         132.4086  121.4288   70.1564 H         7        0    0.0000
    113 H         132.5712  120.8356   68.5083 H         7        0    0.0000
    114 C         131.7128  122.8133   68.6013 C.3       8        0    0.0000
    115 C         132.6721  123.1447   67.4492 C.3       8        0    0.0000
    116 H         131.9091  123.5165   69.4208 H         8        0    0.0000
    117 H         130.6676  122.9611   68.3052 H         8        0    0.0000
    118 H         133.5720  122.5275   67.5673 H         8        0    0.0000
    119 H         132.2361  122.8806   66.4786 H         8        0    0.0000
    120 C         133.1477  124.6386   67.4259 C.3       9        0    0.0000
    121 C         133.8303  125.0557   66.1154 C.3       9        0    0.0000
    122 H         132.2513  125.2586   67.5552 H         9        0    0.0000
    123 H         133.7918  124.8348   68.2911 H         9        0    0.0000
    124 H         133.6664  124.3125   65.3262 H         9        0    0.0000
    125 H         133.3643  125.9876   65.7704 H         9        0    0.0000
    126 C         135.3649  125.3434   66.2598 C.3      10        0    0.0000
    127 C         136.2635  124.2413   65.6808 C.3      10        0    0.0000
    128 H         135.5727  125.4224   67.3346 H        10        0    0.0000
    129 H         135.6003  126.3208   65.8224 H        10        0    0.0000
    130 H         135.7048  123.2970   65.7085 H        10        0    0.0000
    131 H         136.5023  124.4333   64.6281 H        10        0    0.0000
    132 C         139.6629  127.1332   67.0956 C.3      11        0    0.0000
    133 C         138.8464  126.2480   66.1643 C.3      11        0    0.0000
    134 C         138.1640  125.2737   67.1302 C.3      11        0    0.0000
    135 C         137.5869  124.0081   66.4888 C.3      11        0    0.0000
    136 C         139.1862  125.0394   68.2597 C.3      11        0    0.0000
    137 C         140.2632  126.1278   68.0837 C.3      11        0    0.0000
    138 C         140.8127  126.7289   69.3810 C.3      11        0    0.0000
    139 H         140.4349  127.6912   66.5566 H        11        0    0.0000
    140 H         139.0047  127.8553   67.5911 H        11        0    0.0000
    141 H         138.1215  126.8256   65.5825 H        11        0    0.0000
    142 H         139.5133  125.7341   65.4633 H        11        0    0.0000
    143 H         137.3152  125.8115   67.5789 H        11        0    0.0000
    144 H         138.3370  123.5726   65.8181 H        11        0    0.0000
    145 H         137.3951  123.2650   67.2719 H        11        0    0.0000
    146 H         139.6543  124.0502   68.2118 H        11        0    0.0000
    147 H         138.6795  125.0946   69.2292 H        11        0    0.0000
    148 H         141.1145  125.6505   67.5753 H        11        0    0.0000
    149 H         140.1897  127.5830   69.6718 H        11        0    0.0000
    150 H         140.7261  125.9877   70.1843 H        11        0    0.0000
    151 C         143.2473  123.7374   68.1328 C.3      12        0    0.0000
    152 C         142.6114  124.6751   69.1624 C.3      12        0    0.0000
    153 C         143.2496  126.0529   68.9421 C.3      12        0    0.0000
    154 C         142.2957  127.1987   69.2911 C.3      12        0    0.0000
    155 C         143.6806  126.0061   67.4724 C.3      12        0    0.0000
    156 C         144.2433  124.5877   67.3333 C.3      12        0    0.0000
    157 C         144.3967  124.1009   65.8897 C.3      12        0    0.0000
    158 H         143.7510  122.8939   68.6170 H        12        0    0.0000
    159 H         142.4655  123.3212   67.4862 H        12        0    0.0000
    160 H         142.7826  124.3219   70.1849 H        12        0    0.0000
    161 H         141.5263  124.7060   69.0068 H        12        0    0.0000
    162 H         144.1503  126.1175   69.5699 H        12        0    0.0000
    163 H         142.3689  127.9774   68.5225 H        12        0    0.0000
    164 H         142.5897  127.6625   70.2400 H        12        0    0.0000
    165 H         144.4315  126.7684   67.2420 H        12        0    0.0000
    166 H         142.8216  126.1551   66.8061 H        12        0    0.0000
    167 H         145.2168  124.5450   67.8432 H        12        0    0.0000
    168 H         143.7493  124.6811   65.2218 H        12        0    0.0000
    169 H         144.0661  123.0574   65.8225 H        12        0    0.0000
    170 C         145.8649  124.1870   65.3899 C.3      13        0    0.0000
    171 C         146.3969  122.8784   64.7882 C.3      13        0    0.0000
    172 H         145.8886  124.9559   64.6071 H        13        0    0.0000
    173 H         146.5107  124.5449   66.2003 H        13        0    0.0000
    174 H         145.7116  122.0441   64.9788 H        13        0    0.0000
    175 H         146.4474  123.0003   63.6987 H        13        0    0.0000
    176 C         147.8589  119.5200   67.4156 C.3      14        0    0.0000
    177 C         147.0327  120.3990   66.4780 C.3      14        0    0.0000
    178 C         148.0112  120.9822   65.4438 C.3      14        0    0.0000
    179 C         147.8401  122.4968   65.2682 C.3      14        0    0.0000
    180 C         149.4028  120.5630   65.9424 C.3      14        0    0.0000
    181 C         149.1738  119.2396   66.6835 C.3      14        0    0.0000
    182 C         149.0628  118.0115   65.7616 C.3      14        0    0.0000
    183 H         148.0699  120.0818   68.3346 H        14        0    0.0000
    184 H         147.3222  118.6120   67.7080 H        14        0    0.0000
    185 H         146.5028  121.1712   67.0464 H        14        0    0.0000
    186 H         146.2725  119.7972   65.9662 H        14        0    0.0000
    187 H         147.8197  120.4864   64.4817 H        14        0    0.0000
    188 H         148.5797  122.8839   64.5578 H        14        0    0.0000
    189 H         148.0298  122.9960   66.2261 H        14        0    0.0000
    190 H         150.1236  120.4777   65.1234 H        14        0    0.0000
    191 H         149.7943  121.3067   66.6486 H        14        0    0.0000
    192 H         149.9752  119.0718   67.4143 H        14        0    0.0000
    193 H         148.7669  118.3012   64.7476 H        14        0    0.0000
    194 H         148.2766  117.3466   66.1394 H        14        0    0.0000
    195 C         150.3896  117.2026   65.7043 C.3      15        0    0.0000
    196 C         150.2278  115.7139   66.0430 C.3      15        0    0.0000
    197 H         150.7629  117.2790   64.6750 H        15        0    0.0000
    198 H         151.1404  117.6785   66.3460 H        15        0    0.0000
    199 H         149.1702  115.4307   66.1012 H        15        0    0.0000
    200 H         150.6646  115.1288   65.2236 H        15        0    0.0000
    201 C         151.2684  118.7013   68.6374 C.3      16        0    0.0000
    202 C         150.3530  117.6760   67.9702 C.3      16        0    0.0000
    203 C         150.7867  116.2941   68.4889 C.3      16        0    0.0000
    204 C         150.9652  115.2753   67.3555 C.3      16        0    0.0000
    205 C         152.0662  116.5632   69.2960 C.3      16        0    0.0000
    206 C         151.8983  117.9887   69.8370 C.3      16        0    0.0000
    207 C         151.0094  118.0871   71.0903 C.3      16        0    0.0000
    208 H         152.0584  118.9850   67.9302 H        16        0    0.0000
    209 H         150.7329  119.6167   68.9080 H        16        0    0.0000
    210 H         150.4152  117.7610   66.8797 H        16        0    0.0000
    211 H         149.3091  117.8622   68.2486 H        16        0    0.0000
    212 H         150.0086  115.9325   69.1759 H        16        0    0.0000
    213 H         150.6043  114.2890   67.6695 H        16        0    0.0000
    214 H         152.0333  115.1653   67.1324 H        16        0    0.0000
    215 H         152.2181  115.8195   70.0843 H        16        0    0.0000
    216 H         152.9450  116.5298   68.6390 H        16        0    0.0000
    217 H         152.8799  118.4287   70.0546 H        16        0    0.0000
    218 H         150.2372  117.3104   71.0917 H        16        0    0.0000
    219 H         150.4849  119.0503   71.0859 H        16        0    0.0000
    220 C         155.1441  116.9264   70.9349 C.3      17        0    0.0000
    221 C         153.6315  117.1303   70.8157 C.3      17        0    0.0000
    222 C         153.0808  117.1157   72.2478 C.3      17        0    0.0000
    223 C         151.8386  117.9974   72.4026 C.3      17        0    0.0000
    224 C         154.2844  117.5550   73.0882 C.3      17        0    0.0000
    225 C         155.4444  116.7970   72.4340 C.3      17        0    0.0000
    226 C         156.8357  117.3235   72.7964 C.3      17        0    0.0000
    227 H         155.4718  116.0343   70.3903 H        17        0    0.0000
    228 H         155.6641  117.7853   70.4942 H        17        0    0.0000
    229 H         153.1684  116.3448   70.2088 H        17        0    0.0000
    230 H         153.4302  118.0865   70.3181 H        17        0    0.0000
    231 H         152.8315  116.0767   72.5084 H        17        0    0.0000
    232 H         152.1468  119.0097   72.6902 H        17        0    0.0000
    233 H         151.2022  117.6191   73.2112 H        17        0    0.0000
    234 H         154.1654  117.2890   74.1433 H        17        0    0.0000
    235 H         154.4360  118.6396   73.0206 H        17        0    0.0000
    236 H         155.3682  115.7346   72.7082 H        17        0    0.0000
    237 H         156.8305  118.4193   72.8312 H        17        0    0.0000
    238 H         157.5471  117.0355   72.0132 H        17        0    0.0000
    239 C         160.5991  115.1784   73.3453 C.3      18        0    0.0000
    240 C         159.2522  115.6691   72.8086 C.3      18        0    0.0000
    241 C         158.2440  115.5387   73.9643 C.3      18        0    0.0000
    242 C         157.3435  116.7656   74.1543 C.3      18        0    0.0000
    243 C         159.1095  115.2539   75.1959 C.3      18        0    0.0000
    244 C         160.2943  114.4455   74.6563 C.3      18        0    0.0000
    245 C         159.9466  112.9587   74.4520 C.3      18        0    0.0000
    246 H         161.1317  114.5667   72.6109 H        18        0    0.0000
    247 H         161.2325  116.0489   73.5588 H        18        0    0.0000
    248 H         159.3473  116.6967   72.4406 H        18        0    0.0000
    249 H         158.9305  115.0507   71.9626 H        18        0    0.0000
    250 H         157.6165  114.6557   73.7766 H        18        0    0.0000
    251 H         156.4749  116.4877   74.7630 H        18        0    0.0000
    252 H         157.8770  117.5510   74.7019 H        18        0    0.0000
    253 H         158.5523  114.7234   75.9749 H        18        0    0.0000
    254 H         159.4753  116.1929   75.6312 H        18        0    0.0000
    255 H         161.1428  114.5306   75.3469 H        18        0    0.0000
    256 H         160.4878  112.5397   73.5965 H        18        0    0.0000
    257 H         158.8770  112.8621   74.2308 H        18        0    0.0000
    258 C         160.1671  112.4323   79.4177 C.3      19        0    0.0000
    259 C         159.3718  112.1321   78.1448 C.3      19        0    0.0000
    260 C         160.0462  112.9210   77.0081 C.3      19        0    0.0000
    261 C         160.2567  112.1134   75.7214 C.3      19        0    0.0000
    262 C         161.3664  113.4092   77.6130 C.3      19        0    0.0000
    263 C         161.0490  113.6431   79.0939 C.3      19        0    0.0000
    264 C         160.3417  114.9897   79.3376 C.3      19        0    0.0000
    265 H         159.5123  112.5813   80.2815 H        19        0    0.0000
    266 H         160.8083  111.5709   79.6449 H        19        0    0.0000
    267 H         159.3530  111.0523   77.9605 H        19        0    0.0000
    268 H         158.3318  112.4594   78.2587 H        19        0    0.0000
    269 H         159.4269  113.8015   76.7847 H        19        0    0.0000
    270 H         161.2993  111.7777   75.6698 H        19        0    0.0000
    271 H         159.6327  111.2123   75.7285 H        19        0    0.0000
    272 H         161.7400  114.3076   77.1111 H        19        0    0.0000
    273 H         162.1380  112.6337   77.5224 H        19        0    0.0000
    274 H         161.9766  113.6067   79.6792 H        19        0    0.0000
    275 H         159.9044  115.0312   80.3412 H        19        0    0.0000
    276 H         159.5155  115.1009   78.6253 H        19        0    0.0000
    277 C         161.3098  116.1933   79.1478 C.3      20        0    0.0000
    278 C         160.9919  117.0625   77.9227 C.3      20        0    0.0000
    279 H         161.2154  116.8202   80.0437 H        20        0    0.0000
    280 H         162.3454  115.8343   79.1242 H        20        0    0.0000
    281 H         159.9618  116.9082   77.5806 H        20        0    0.0000
    282 H         161.0683  118.1154   78.2231 H        20        0    0.0000
    283 C         165.5471  117.0270   75.8643 C.3      21        0    0.0000
    284 C         164.2598  117.8202   76.0836 C.3      21        0    0.0000
    285 C         163.4459  117.0560   77.1422 C.3      21        0    0.0000
    286 C         161.9826  116.8609   76.7241 C.3      21        0    0.0000
    287 C         164.2163  115.7438   77.3556 C.3      21        0    0.0000
    288 C         165.6820  116.0969   77.0726 C.3      21        0    0.0000
    289 C         166.4025  116.7863   78.2457 C.3      21        0    0.0000
    290 H         165.4412  116.4233   74.9538 H        21        0    0.0000
    291 H         166.4134  117.6802   75.7199 H        21        0    0.0000
    292 H         163.7207  117.9426   75.1378 H        21        0    0.0000
    293 H         164.4925  118.8255   76.4540 H        21        0    0.0000
    294 H         163.4772  117.6364   78.0751 H        21        0    0.0000
    295 H         161.8398  115.8641   76.2910 H        21        0    0.0000
    296 H         161.7303  117.5855   75.9405 H        21        0    0.0000
    297 H         164.0589  115.3338   78.3580 H        21        0    0.0000
    298 H         163.8841  114.9856   76.6346 H        21        0    0.0000
    299 H         166.2393  115.1962   76.7853 H        21        0    0.0000
    300 H         165.7505  117.5147   78.7397 H        21        0    0.0000
    301 H         167.2633  117.3467   77.8612 H        21        0    0.0000
    302 C         169.7841  117.8041   80.3553 C.3      22        0    0.0000
    303 C         168.3052  117.7996   79.9714 C.3      22        0    0.0000
    304 C         167.7413  116.4352   80.4043 C.3      22        0    0.0000
    305 C         166.9246  115.7625   79.2931 C.3      22        0    0.0000
    306 C         168.9698  115.6291   80.8537 C.3      22        0    0.0000
    307 C         169.9592  116.6779   81.3773 C.3      22        0    0.0000
    308 C         169.6691  117.1583   82.8110 C.3      22        0    0.0000
    309 H         170.3828  117.5788   79.4635 H        22        0    0.0000
    310 H         170.1103  118.7812   80.7252 H        22        0    0.0000
    311 H         168.1884  117.9884   78.8986 H        22        0    0.0000
    312 H         167.7743  118.6009   80.4990 H        22        0    0.0000
    313 H         167.0922  116.5999   81.2759 H        22        0    0.0000
    314 H         166.0804  115.2102   79.7220 H        22        0    0.0000
    315 H         167.5533  115.0278   78.7758 H        22        0    0.0000
    316 H         168.7126  114.8708   81.5997 H        22        0    0.0000
    317 H         169.4181  115.1088   79.9973 H        22        0    0.0000
    318 H         170.9843  116.2892   81.3268 H        22        0    0.0000
    319 H         169.1022  116.4092   83.3741 H        22        0    0.0000
    320 H         169.0441  118.0586   82.7704 H        22        0    0.0000
    321 C         172.2028  114.1871   82.4876 C.3      23        0    0.0000
    322 C         171.2330  114.9527   83.3910 C.3      23        0    0.0000
    323 C         171.9028  116.3006   83.7134 C.3      23        0    0.0000
    324 C         170.9716  117.5122   83.5831 C.3      23        0    0.0000
    325 C         173.0943  116.3744   82.7531 C.3      23        0    0.0000
    326 C         173.5455  114.9195   82.5857 C.3      23        0    0.0000
    327 C         174.4149  114.4350   83.7615 C.3      23        0    0.0000
    328 H         172.2573  113.1273   82.7541 H        23        0    0.0000
    329 H         171.8388  114.2403   81.4535 H        23        0    0.0000
    330 H         170.2653  115.0673   82.8903 H        23        0    0.0000
    331 H         171.0540  114.3951   84.3178 H        23        0    0.0000
    332 H         172.2941  116.2545   84.7398 H        23        0    0.0000
    333 H         170.6974  117.8687   84.5831 H        23        0    0.0000
    334 H         171.4873  118.3392   83.0813 H        23        0    0.0000
    335 H         173.8883  117.0247   83.1341 H        23        0    0.0000
    336 H         172.7771  116.7732   81.7808 H        23        0    0.0000
    337 H         174.1068  114.8138   81.6486 H        23        0    0.0000
    338 H         173.8039  113.9555   84.5342 H        23        0    0.0000
    339 H         174.9043  115.2964   84.2313 H        23        0    0.0000
    340 C         173.8071  110.1704   84.1742 C.3      24        0    0.0000
    341 C         173.9294  111.4026   83.2886 C.3      24        0    0.0000
    342 C         175.2811  111.9908   83.7065 C.3      24        0    0.0000
    343 C         175.5211  113.4459   83.2926 C.3      24        0    0.0000
    344 C         175.4007  111.7009   85.2155 C.3      24        0    0.0000
    345 C         174.2928  110.6784   85.5357 C.3      24        0    0.0000
    346 C         174.6696  109.5913   86.5468 C.3      24        0    0.0000
    347 H         172.7787  109.7983   84.2171 H        24        0    0.0000
    348 H         174.4429  109.3687   83.7827 H        24        0    0.0000
    349 H         173.9038  111.1458   82.2251 H        24        0    0.0000
    350 H         173.1003  112.0889   83.4930 H        24        0    0.0000
    351 H         176.0576  111.3918   83.2073 H        24        0    0.0000
    352 H         176.4849  113.7785   83.6958 H        24        0    0.0000
    353 H         175.6013  113.4992   82.2004 H        24        0    0.0000
    354 H         175.2631  112.5950   85.8331 H        24        0    0.0000
    355 H         176.4049  111.3239   85.4374 H        24        0    0.0000
    356 H         173.4601  111.2438   85.9806 H        24        0    0.0000
    357 H         173.7947  108.9574   86.7336 H        24        0    0.0000
    358 H         175.4390  108.9449   86.1081 H        24        0    0.0000
    359 C         175.9145  113.5749   86.5318 C.3      25        0    0.0000
    360 C         176.0727  112.0623   86.5059 C.3      25        0    0.0000
    361 C         175.5044  111.6352   87.8608 C.3      25        0    0.0000
    362 C         175.1921  110.1375   87.9094 C.3      25        0    0.0000
    363 C         174.2838  112.5540   88.0519 C.3      25        0    0.0000
    364 C         174.5240  113.7795   87.1464 C.3      25        0    0.0000
    365 C         174.2954  115.1433   87.8102 C.3      25        0    0.0000
    366 H         175.9869  114.0104   85.5302 H        25        0    0.0000
    367 H         176.7069  114.0154   87.1466 H        25        0    0.0000
    368 H         175.4918  111.6338   85.6801 H        25        0    0.0000
    369 H         177.1176  111.7618   86.3821 H        25        0    0.0000
    370 H         176.2436  111.8809   88.6372 H        25        0    0.0000
    371 H         176.0851  109.5743   88.2057 H        25        0    0.0000
    372 H         174.4328  109.9504   88.6781 H        25        0    0.0000
    373 H         173.3584  112.0547   87.7386 H        25        0    0.0000
    374 H         174.1598  112.8176   89.1075 H        25        0    0.0000
    375 H         173.7961  113.7095   86.3243 H        25        0    0.0000
    376 H         174.4891  115.0552   88.8858 H        25        0    0.0000
    377 H         173.2395  115.4187   87.7029 H        25        0    0.0000
    378 C         173.8714  119.3629   85.6028 C.3      26        0    0.0000
    379 C         173.5650  118.1872   86.5338 C.3      26        0    0.0000
    380 C         174.4660  117.0232   86.0839 C.3      26        0    0.0000
    381 C         175.1707  116.2932   87.2340 C.3      26        0    0.0000
    382 C         175.4560  117.6626   85.1051 C.3      26        0    0.0000
    383 C         174.6580  118.7796   84.4239 C.3      26        0    0.0000
    384 C         173.7532  118.2506   83.2949 C.3      26        0    0.0000
    385 H         172.9628  119.8958   85.3069 H        26        0    0.0000
    386 H         174.5056  120.0812   86.1380 H        26        0    0.0000
    387 H         173.7359  118.4797   87.5757 H        26        0    0.0000
    388 H         172.5114  117.8970   86.4476 H        26        0    0.0000
    389 H         173.8488  116.3054   85.5249 H        26        0    0.0000
    390 H         176.1120  115.8648   86.8695 H        26        0    0.0000
    391 H         175.4305  116.9976   88.0326 H        26        0    0.0000
    392 H         175.8589  116.9337   84.3945 H        26        0    0.0000
    393 H         176.3038  118.0985   85.6494 H        26        0    0.0000
    394 H         175.3483  119.5297   84.0175 H        26        0    0.0000
    395 H         173.3291  119.0736   82.7091 H        26        0    0.0000
    396 H         172.9097  117.7024   83.7312 H        26        0    0.0000
    397 C         174.5193  117.2843   82.3456 C.3      27        0    0.0000
    398 C         175.0738  117.9596   81.0831 C.3      27        0    0.0000
    399 H         175.3663  116.8838   82.9174 H        27        0    0.0000
    400 H         173.8799  116.4303   82.0931 H        27        0    0.0000
    401 H         175.1595  117.2470   80.2544 H        27        0    0.0000
    402 H         174.3565  118.7267   80.7643 H        27        0    0.0000
    403 C         179.8479  117.5692   82.5393 C.3      28        0    0.0000
    404 C         178.9880  118.2037   81.4569 C.3      28        0    0.0000
    405 C         177.5632  117.7822   81.8380 C.3      28        0    0.0000
    406 C         176.4466  118.6858   81.2996 C.3      28        0    0.0000
    407 C         177.5800  117.5914   83.3686 C.3      28        0    0.0000
    408 C         179.0366  117.8197   83.8122 C.3      28        0    0.0000
    409 C         179.4980  116.9361   84.9739 C.3      28        0    0.0000
    410 H         179.9657  116.4954   82.3498 H        28        0    0.0000
    411 H         180.8439  118.0200   82.5880 H        28        0    0.0000
    412 H         179.1167  119.2913   81.4778 H        28        0    0.0000
    413 H         179.2646  117.8532   80.4576 H        28        0    0.0000
    414 H         177.3946  116.7872   81.3997 H        28        0    0.0000
    415 H         176.2966  119.5193   81.9960 H        28        0    0.0000
    416 H         176.7690  119.1255   80.3483 H        28        0    0.0000
    417 H         177.2483  116.5726   83.6048 H        28        0    0.0000
    418 H         176.9043  118.2744   83.8941 H        28        0    0.0000
    419 H         179.1489  118.8780   84.0894 H        28        0    0.0000
    420 H         178.8908  116.0243   85.0199 H        28        0    0.0000
    421 H         180.5321  116.6168   84.7976 H        28        0    0.0000
    422 C         183.0585  118.2552   87.3028 C.3      29        0    0.0000
    423 C         182.0157  117.5818   86.4216 C.3      29        0    0.0000
    424 C         180.7344  118.3509   86.7597 C.3      29        0    0.0000
    425 C         179.4282  117.6676   86.3437 C.3      29        0    0.0000
    426 C         180.8541  118.7007   88.2560 C.3      29        0    0.0000
    427 C         182.3219  118.4240   88.6357 C.3      29        0    0.0000
    428 C         182.9508  119.4223   89.6125 C.3      29        0    0.0000
    429 H         183.9615  117.6456   87.4063 H        29        0    0.0000
    430 H         183.3461  119.2179   86.8660 H        29        0    0.0000
    431 H         182.2701  117.6533   85.3596 H        29        0    0.0000
    432 H         181.9403  116.5204   86.6826 H        29        0    0.0000
    433 H         180.7786  119.3023   86.2084 H        29        0    0.0000
    434 H         179.1414  116.9434   87.1155 H        29        0    0.0000
    435 H         178.6289  118.4170   86.3024 H        29        0    0.0000
    436 H         180.1927  118.0985   88.8882 H        29        0    0.0000
    437 H         180.5636  119.7453   88.4120 H        29        0    0.0000
    438 H         182.3394  117.4440   89.1361 H        29        0    0.0000
    439 H         184.0297  119.4760   89.4244 H        29        0    0.0000
    440 H         182.5462  120.4217   89.4136 H        29        0    0.0000
    441 C         185.1761  116.4681   92.2946 C.3      30        0    0.0000
    442 C         184.8330  117.7245   91.5089 C.3      30        0    0.0000
    443 C         183.3030  117.7174   91.5021 C.3      30        0    0.0000
    444 C         182.7212  119.0792   91.1151 C.3      30        0    0.0000
    445 C         182.9329  117.2377   92.9176 C.3      30        0    0.0000
    446 C         184.1673  116.4813   93.4501 C.3      30        0    0.0000
    447 C         183.8789  115.1144   94.0836 C.3      30        0    0.0000
    448 H         186.2098  116.4807   92.6541 H        30        0    0.0000
    449 H         185.0559  115.5898   91.6512 H        30        0    0.0000
    450 H         185.2224  118.6119   92.0227 H        30        0    0.0000
    451 H         185.2515  117.7026   90.4980 H        30        0    0.0000
    452 H         182.9654  116.9568   90.7830 H        30        0    0.0000
    453 H         181.6467  119.1069   91.3317 H        30        0    0.0000
    454 H         183.1861  119.8596   91.7293 H        30        0    0.0000
    455 H         182.7204  118.0855   93.5808 H        30        0    0.0000
    456 H         182.0287  116.6206   92.8925 H        30        0    0.0000
    457 H         184.5989  117.1064   94.2461 H        30        0    0.0000
    458 H         184.8152  114.5485   94.1563 H        30        0    0.0000
    459 H         183.2193  114.5456   93.4174 H        30        0    0.0000
    460 C         181.3125  117.8709   97.3600 C.3      31        0    0.0000
    461 C         181.3367  116.5151   96.6710 C.3      31        0    0.0000
    462 C         182.6304  116.5544   95.8478 C.3      31        0    0.0000
    463 C         183.2227  115.1847   95.4925 C.3      31        0    0.0000
    464 C         183.5772  117.5089   96.6041 C.3      31        0    0.0000
    465 C         182.7680  118.0622   97.7913 C.3      31        0    0.0000
    466 C         183.0761  119.5172   98.1535 C.3      31        0    0.0000
    467 H         181.0033  118.6506   96.6532 H        31        0    0.0000
    468 H         180.6235  117.8862   98.2100 H        31        0    0.0000
    469 H         181.3511  115.7212   97.4256 H        31        0    0.0000
    470 H         180.4554  116.3615   96.0404 H        31        0    0.0000
    471 H         182.3886  117.0442   94.8927 H        31        0    0.0000
    472 H         183.9753  114.9169   96.2437 H        31        0    0.0000
    473 H         182.4335  114.4262   95.5543 H        31        0    0.0000
    474 H         183.8884  118.3138   95.9265 H        31        0    0.0000
    475 H         184.4916  117.0186   96.9545 H        31        0    0.0000
    476 H         182.9558  117.4196   98.6638 H        31        0    0.0000
    477 H         183.5192  120.0351   97.2946 H        31        0    0.0000
    478 H         182.1400  120.0385   98.3865 H        31        0    0.0000
    479 C         184.0319  119.6385   99.3734 C.3      32        0    0.0000
    480 C         183.6283  120.7289  100.3762 C.3      32        0    0.0000
    481 H         184.0068  118.6720   99.8929 H        32        0    0.0000
    482 H         185.0613  119.7796   99.0236 H        32        0    0.0000
    483 H         183.9510  121.7207  100.0384 H        32        0    0.0000
    484 H         182.5322  120.7560  100.4268 H        32        0    0.0000
    485 C         186.4605  123.1502  102.8054 C.3      33        0    0.0000
    486 C         185.3892  122.7019  101.8125 C.3      33        0    0.0000
    487 C         184.4285  121.7820  102.5856 C.3      33        0    0.0000
    488 C         184.1427  120.4744  101.8354 C.3      33        0    0.0000
    489 C         185.0943  121.5847  103.9563 C.3      33        0    0.0000
    490 C         185.8880  122.8748  104.1983 C.3      33        0    0.0000
    491 C         185.0374  124.0523  104.7086 C.3      33        0    0.0000
    492 H         187.3598  122.5389  102.6572 H        33        0    0.0000
    493 H         186.7509  124.1946  102.6538 H        33        0    0.0000
    494 H         185.8505  122.2085  100.9499 H        33        0    0.0000
    495 H         184.8393  123.5702  101.4306 H        33        0    0.0000
    496 H         183.4842  122.3257  102.7298 H        33        0    0.0000
    497 H         183.4101  119.8722  102.3852 H        33        0    0.0000
    498 H         185.0628  119.8804  101.7797 H        33        0    0.0000
    499 H         184.3617  121.3770  104.7423 H        33        0    0.0000
    500 H         185.7901  120.7361  103.9231 H        33        0    0.0000
    501 H         186.7073  122.6880  104.9042 H        33        0    0.0000
    502 H         184.4012  123.7489  105.5470 H        33        0    0.0000
    503 H         184.3643  124.3844  103.9089 H        33        0    0.0000
    504 C         188.8787  125.3961  102.8042 C.3      34        0    0.0000
    505 C         187.4199  125.0804  103.0972 C.3      34        0    0.0000
    506 C         187.3528  125.1563  104.6239 C.3      34        0    0.0000
    507 C         185.9135  125.2645  105.1336 C.3      34        0    0.0000
    508 C         188.2507  126.3580  104.9705 C.3      34        0    0.0000
    509 C         189.1966  126.5474  103.7667 C.3      34        0    0.0000
    510 C         190.6804  126.7184  104.1161 C.3      34        0    0.0000
    511 H         189.0328  125.6825  101.7591 H        34        0    0.0000
    512 H         189.4919  124.5104  103.0026 H        34        0    0.0000
    513 H         186.7684  125.8317  102.6345 H        34        0    0.0000
    514 H         187.1299  124.0955  102.7186 H        34        0    0.0000
    515 H         187.8199  124.2493  105.0346 H        34        0    0.0000
    516 H         185.9048  125.3508  106.2266 H        34        0    0.0000
    517 H         185.4585  126.1821  104.7420 H        34        0    0.0000
    518 H         187.6573  127.2710  105.1051 H        34        0    0.0000
    519 H         188.7828  126.1843  105.9117 H        34        0    0.0000
    520 H         188.8869  127.4778  103.2679 H        34        0    0.0000
    521 H         191.2697  126.7079  103.1915 H        34        0    0.0000
    522 H         191.0084  125.8551  104.7073 H        34        0    0.0000
    523 C         188.6993  129.9279  107.1971 C.3      35        0    0.0000
    524 C         189.3787  128.6252  106.7668 C.3      35        0    0.0000
    525 C         189.7497  128.8009  105.2884 C.3      35        0    0.0000
    526 C         191.0087  128.0172  104.9072 C.3      35        0    0.0000
    527 C         189.8741  130.3208  105.1389 C.3      35        0    0.0000
    528 C         188.6881  130.8365  105.9608 C.3      35        0    0.0000
    529 C         188.7641  132.3209  106.3287 C.3      35        0    0.0000
    530 H         187.6822  129.7475  107.5612 H        35        0    0.0000
    531 H         189.2642  130.3791  108.0216 H        35        0    0.0000
    532 H         188.7167  127.7637  106.9059 H        35        0    0.0000
    533 H         190.2675  128.4552  107.3862 H        35        0    0.0000
    534 H         188.9014  128.4568  104.6791 H        35        0    0.0000
    535 H         191.5537  127.7422  105.8182 H        35        0    0.0000
    536 H         191.6826  128.6457  104.3133 H        35        0    0.0000
    537 H         189.8137  130.6351  104.0921 H        35        0    0.0000
    538 H         190.8247  130.6799  105.5528 H        35        0    0.0000
    539 H         187.7619  130.6414  105.4007 H        35        0    0.0000
    540 H         187.8304  132.8279  106.0584 H        35        0    0.0000
    541 H         189.5623  132.7975  105.7472 H        35        0    0.0000
    542 C         191.0530  135.7711  107.9675 C.3      36        0    0.0000
    543 C         190.4499  134.6196  107.1751 C.3      36        0    0.0000
    544 C         189.5119  133.9599  108.1912 C.3      36        0    0.0000
    545 C         189.0538  132.5414  107.8387 C.3      36        0    0.0000
    546 C         190.2177  134.1111  109.5529 C.3      36        0    0.0000
    547 C         191.3511  135.1309  109.3273 C.3      36        0    0.0000
    548 C         191.5942  136.1132  110.4772 C.3      36        0    0.0000
    549 H         191.9562  136.1658  107.4919 H        36        0    0.0000
    550 H         190.3258  136.5867  108.0465 H        36        0    0.0000
    551 H         189.9138  134.9705  106.2879 H        36        0    0.0000
    552 H         191.2444  133.9407  106.8462 H        36        0    0.0000
    553 H         188.6034  134.5795  108.2357 H        36        0    0.0000
    554 H         189.8223  131.8274  108.1579 H        36        0    0.0000
    555 H         188.1479  132.3051  108.4094 H        36        0    0.0000
    556 H         190.6402  133.1697  109.9203 H        36        0    0.0000
    557 H         189.4935  134.4393  110.3062 H        36        0    0.0000
    558 H         192.2791  134.5511  109.2102 H        36        0    0.0000
    559 H         192.6736  136.2066  110.6460 H        36        0    0.0000
    560 H         191.2344  137.1061  110.1826 H        36        0    0.0000
    561 C         193.5717  135.7423  114.4051 C.3      37        0    0.0000
    562 C         193.2488  135.7126  112.9092 C.3      37        0    0.0000
    563 C         191.8889  135.0059  112.7664 C.3      37        0    0.0000
    564 C         190.9107  135.7107  111.8185 C.3      37        0    0.0000
    565 C         191.3520  134.9177  114.1986 C.3      37        0    0.0000
    566 C         192.6025  134.7589  115.0702 C.3      37        0    0.0000
    567 C         193.1266  133.3104  115.0873 C.3      37        0    0.0000
    568 H         194.6259  135.5225  114.5987 H        37        0    0.0000
    569 H         193.3782  136.7525  114.7881 H        37        0    0.0000
    570 H         193.2433  136.7315  112.5066 H        37        0    0.0000
    571 H         194.0179  135.1530  112.3640 H        37        0    0.0000
    572 H         192.0679  133.9830  112.4055 H        37        0    0.0000
    573 H         190.0739  135.0385  111.5946 H        37        0    0.0000
    574 H         190.4848  136.5991  112.2990 H        37        0    0.0000
    575 H         190.6415  134.0936  114.3203 H        37        0    0.0000
    576 H         190.8326  135.8460  114.4698 H        37        0    0.0000
    577 H         192.3790  135.0786  116.0959 H        37        0    0.0000
    578 H         194.1937  133.2786  115.3339 H        37        0    0.0000
    579 H         193.0172  132.8720  114.0883 H        37        0    0.0000
    580 C         188.7946  132.5198  117.4287 C.3      38        0    0.0000
    581 C         189.8465  131.8718  116.5416 C.3      38        0    0.0000
    582 C         190.9377  132.9448  116.4371 C.3      38        0    0.0000
    583 C         192.3389  132.4231  116.0944 C.3      38        0    0.0000
    584 C         190.8381  133.7690  117.7373 C.3      38        0    0.0000
    585 C         189.6328  133.2037  118.5108 C.3      38        0    0.0000
    586 C         188.8279  134.2452  119.2921 C.3      38        0    0.0000
    587 H         188.2137  133.2528  116.8557 H        38        0    0.0000
    588 H         188.1008  131.7836  117.8462 H        38        0    0.0000
    589 H         190.2124  130.9554  117.0172 H        38        0    0.0000
    590 H         189.4435  131.6017  115.5605 H        38        0    0.0000
    591 H         190.6487  133.6179  115.6162 H        38        0    0.0000
    592 H         192.9229  132.3383  117.0186 H        38        0    0.0000
    593 H         192.2533  131.4104  115.6830 H        38        0    0.0000
    594 H         190.6847  134.8244  117.4798 H        38        0    0.0000
    595 H         191.7462  133.7205  118.3474 H        38        0    0.0000
    596 H         190.0003  132.4308  119.2014 H        38        0    0.0000
    597 H         187.7664  134.1811  119.0250 H        38        0    0.0000
    598 H         188.8963  134.0260  120.3643 H        38        0    0.0000
    599 C         187.4609  138.6931  120.4454 C.3      39        0    0.0000
    600 C         187.5261  137.4937  119.5102 C.3      39        0    0.0000
    601 C         188.7572  136.7337  120.0147 C.3      39        0    0.0000
    602 C         189.3313  135.6952  119.0461 C.3      39        0    0.0000
    603 C         189.7428  137.8225  120.4822 C.3      39        0    0.0000
    604 C         188.9265  139.1283  120.5458 C.3      39        0    0.0000
    605 C         189.2576  140.0576  121.7175 C.3      39        0    0.0000
    606 H         186.8223  139.4877  120.0472 H        39        0    0.0000
    607 H         187.0552  138.3846  121.4152 H        39        0    0.0000
    608 H         186.6178  136.8854  119.5615 H        39        0    0.0000
    609 H         187.6482  137.8364  118.4769 H        39        0    0.0000
    610 H         188.4451  136.1825  120.9147 H        39        0    0.0000
    611 H         189.0797  135.9859  118.0192 H        39        0    0.0000
    612 H         190.4254  135.7050  119.1172 H        39        0    0.0000
    613 H         190.5889  137.9526  119.7989 H        39        0    0.0000
    614 H         190.1688  137.5391  121.4508 H        39        0    0.0000
    615 H         189.1562  139.6894  119.6274 H        39        0    0.0000
    616 H         189.4469  141.0665  121.3319 H        39        0    0.0000
    617 H         188.3833  140.1307  122.3752 H        39        0    0.0000
    618 C         189.5328  139.8334  126.1447 C.3      40        0    0.0000
    619 C         189.1840  140.2229  124.7060 C.3      40        0    0.0000
    620 C         190.5143  140.2959  123.9351 C.3      40        0    0.0000
    621 C         190.4852  139.6072  122.5650 C.3      40        0    0.0000
    622 C         191.5401  139.6663  124.8829 C.3      40        0    0.0000
    623 C         191.0456  140.0341  126.2860 C.3      40        0    0.0000
    624 C         191.4310  141.4706  126.6870 C.3      40        0    0.0000
    625 H         188.9426  140.3969  126.8737 H        40        0    0.0000
    626 H         189.2955  138.7718  126.2905 H        40        0    0.0000
    627 H         188.4845  139.4954  124.2799 H        40        0    0.0000
    628 H         188.6877  141.2001  124.6851 H        40        0    0.0000
    629 H         190.7778  141.3549  123.8015 H        40        0    0.0000
    630 H         191.3994  139.8573  122.0135 H        40        0    0.0000
    631 H         190.4741  138.5177  122.6843 H        40        0    0.0000
    632 H         192.5559  140.0227  124.6831 H        40        0    0.0000
    633 H         191.5439  138.5743  124.7709 H        40        0    0.0000
    634 H         191.4571  139.3277  127.0181 H        40        0    0.0000
    635 H         190.6366  142.1800  126.4296 H        40        0    0.0000
    636 H         192.3243  141.7768  126.1297 H        40        0    0.0000
    637 C         195.1325  141.0667  129.6372 C.3      41        0    0.0000
    638 C         194.3090  141.3275  128.3736 C.3      41        0    0.0000
    639 C         192.9283  140.6891  128.6085 C.3      41        0    0.0000
    640 C         191.7470  141.5809  128.2068 C.3      41        0    0.0000
    641 C         192.9166  140.3425  130.1008 C.3      41        0    0.0000
    642 C         194.3731  139.9956  130.4276 C.3      41        0    0.0000
    643 C         194.7428  138.5595  130.0104 C.3      41        0    0.0000
    644 H         196.1650  140.7923  129.4012 H        41        0    0.0000
    645 H         195.1725  141.9899  130.2295 H        41        0    0.0000
    646 H         194.2526  142.4041  128.1786 H        41        0    0.0000
    647 H         194.7894  140.8655  127.5032 H        41        0    0.0000
    648 H         192.8814  139.7496  128.0395 H        41        0    0.0000
    649 H         190.8561  141.2791  128.7703 H        41        0    0.0000
    650 H         191.9496  142.6258  128.4687 H        41        0    0.0000
    651 H         192.2239  139.5253  130.3265 H        41        0    0.0000
    652 H         192.6063  141.2133  130.6928 H        41        0    0.0000
    653 H         194.5483  140.1198  131.5038 H        41        0    0.0000
    654 H         195.7636  138.5125  129.6155 H        41        0    0.0000
    655 H         194.0744  138.2308  129.2057 H        41        0    0.0000
    656 C         192.1482  139.9779  132.4606 C.3      42        0    0.0000
    657 C         192.4310  138.8795  131.4369 C.3      42        0    0.0000
    658 C         193.4123  137.8988  132.1019 C.3      42        0    0.0000
    659 C         194.6026  137.5598  131.1949 C.3      42        0    0.0000
    660 C         193.8056  138.5755  133.4241 C.3      42        0    0.0000
    661 C         192.5830  139.4148  133.8162 C.3      42        0    0.0000
    662 C         191.4551  138.6107  134.4882 C.3      42        0    0.0000
    663 H         192.7633  140.8544  132.2195 H        42        0    0.0000
    664 H         191.1027  140.3011  132.4394 H        42        0    0.0000
    665 H         192.8232  139.3127  130.5103 H        42        0    0.0000
    666 H         191.5039  138.3539  131.1793 H        42        0    0.0000
    667 H         192.8624  136.9751  132.3310 H        42        0    0.0000
    668 H         194.5072  136.5390  130.8069 H        42        0    0.0000
    669 H         195.5269  137.5893  131.7843 H        42        0    0.0000
    670 H         194.0898  137.8467  134.1895 H        42        0    0.0000
    671 H         194.6642  139.2421  133.2702 H        42        0    0.0000
    672 H         192.8848  140.2366  134.4780 H        42        0    0.0000
    673 H         191.8421  137.7010  134.9598 H        42        0    0.0000
    674 H         190.7383  138.2865  133.7239 H        42        0    0.0000
    675 C         190.6845  139.4547  135.5425 C.3      43        0    0.0000
    676 C         190.6161  138.8055  136.9323 C.3      43        0    0.0000
    677 H         191.2199  140.4080  135.6380 H        43        0    0.0000
    678 H         189.6836  139.6939  135.1644 H        43        0    0.0000
    679 H         189.7233  138.1778  137.0358 H        43        0    0.0000
    680 H         191.4819  138.1397  137.0400 H        43        0    0.0000
    681 C         194.0987  141.2524  138.9830 C.3      44        0    0.0000
    682 C         193.1902  140.0588  138.7235 C.3      44        0    0.0000
    683 C         191.9384  140.7064  138.1227 C.3      44        0    0.0000
    684 C         190.6824  139.8296  138.1178 C.3      44        0    0.0000
    685 C         191.7989  142.0630  138.8409 C.3      44        0    0.0000
    686 C         193.1378  142.2921  139.5689 C.3      44        0    0.0000
    687 C         193.6510  143.7354  139.5687 C.3      44        0    0.0000
    688 H         194.9098  141.0059  139.6752 H        44        0    0.0000
    689 H         194.5457  141.5889  138.0411 H        44        0    0.0000
    690 H         193.6484  139.3373  138.0399 H        44        0    0.0000
    691 H         192.9760  139.5448  139.6670 H        44        0    0.0000
    692 H         192.1684  140.9286  137.0697 H        44        0    0.0000
    693 H         190.6275  139.2776  139.0636 H        44        0    0.0000
    694 H         189.7959  140.4735  138.0769 H        44        0    0.0000
    695 H         190.9797  142.0775  139.5679 H        44        0    0.0000
    696 H         191.5742  142.8443  138.1068 H        44        0    0.0000
    697 H         192.9755  142.0185  140.6224 H        44        0    0.0000
    698 H         194.7466  143.7258  139.6136 H        44        0    0.0000
    699 H         193.3788  144.2124  138.6197 H        44        0    0.0000
    700 C         193.4245  144.6012  144.4996 C.3      45        0    0.0000
    701 C         193.8208  145.1479  143.1256 C.3      45        0    0.0000
    702 C         193.4926  144.0439  142.1119 C.3      45        0    0.0000
    703 C         193.1096  144.6078  140.7408 C.3      45        0    0.0000
    704 C         192.3824  143.2501  142.8086 C.3      45        0    0.0000
    705 C         192.8734  143.1896  144.2589 C.3      45        0    0.0000
    706 C         191.8005  142.8017  145.2801 C.3      45        0    0.0000
    707 H         194.2803  144.5775  145.1829 H        45        0    0.0000
    708 H         192.6683  145.2561  144.9487 H        45        0    0.0000
    709 H         194.8837  145.4099  143.0905 H        45        0    0.0000
    710 H         193.2535  146.0634  142.9195 H        45        0    0.0000
    711 H         194.3763  143.3969  142.0117 H        45        0    0.0000
    712 H         193.5176  145.6205  140.6391 H        45        0    0.0000
    713 H         192.0201  144.6962  140.6568 H        45        0    0.0000
    714 H         192.2602  142.2520  142.3763 H        45        0    0.0000
    715 H         191.4217  143.7758  142.7407 H        45        0    0.0000
    716 H         193.7118  142.4802  144.3160 H        45        0    0.0000
    717 H         190.9739  142.2800  144.7837 H        45        0    0.0000
    718 H         191.3787  143.7110  145.7250 H        45        0    0.0000
    719 C         195.1806  142.9330  148.7387 C.3      46        0    0.0000
    720 C         193.7942  143.1846  148.1657 C.3      46        0    0.0000
    721 C         193.7634  142.3112  146.9050 C.3      46        0    0.0000
    722 C         192.3646  141.9100  146.4200 C.3      46        0    0.0000
    723 C         194.7280  141.1405  147.1851 C.3      46        0    0.0000
    724 C         195.3554  141.4232  148.5624 C.3      46        0    0.0000
    725 C         196.8174  140.9915  148.7008 C.3      46        0    0.0000
    726 H         195.9342  143.4882  148.1671 H        46        0    0.0000
    727 H         195.2521  143.2383  149.7871 H        46        0    0.0000
    728 H         193.0359  142.8826  148.8962 H        46        0    0.0000
    729 H         193.6336  144.2423  147.9344 H        46        0    0.0000
    730 H         194.2146  142.9021  146.0939 H        46        0    0.0000
    731 H         192.3937  140.8709  146.0709 H        46        0    0.0000
    732 H         191.6700  141.9369  147.2680 H        46        0    0.0000
    733 H         195.4928  141.1124  146.3989 H        46        0    0.0000
    734 H         194.2318  140.1643  147.1793 H        46        0    0.0000
    735 H         194.7491  140.9149  149.3264 H        46        0    0.0000
    736 H         196.8935  139.8981  148.6696 H        46        0    0.0000
    737 H         197.3897  141.3711  147.8460 H        46        0    0.0000
    738 C         195.0208  144.2041  151.1040 C.3      47        0    0.0000
    739 C         195.4606  143.1424  150.1056 C.3      47        0    0.0000
    740 C         196.5517  142.3855  150.8701 C.3      47        0    0.0000
    741 C         197.4718  141.5132  150.0108 C.3      47        0    0.0000
    742 C         197.2589  143.4517  151.7295 C.3      47        0    0.0000
    743 C         196.3495  144.6953  151.6881 C.3      47        0    0.0000
    744 C         196.2414  145.4784  153.0001 C.3      47        0    0.0000
    745 H         194.4600  145.0110  150.6223 H        47        0    0.0000
    746 H         194.3778  143.7511  151.8667 H        47        0    0.0000
    747 H         194.6334  142.4879  149.8139 H        47        0    0.0000
    748 H         195.8492  143.6234  149.2012 H        47        0    0.0000
    749 H         196.0393  141.7062  151.5680 H        47        0    0.0000
    750 H         198.3697  142.0868  149.7517 H        47        0    0.0000
    751 H         197.8072  140.6538  150.6034 H        47        0    0.0000
    752 H         198.2532  143.7126  151.3511 H        47        0    0.0000
    753 H         197.4061  143.0655  152.7439 H        47        0    0.0000
    754 H         196.7879  145.3828  150.9491 H        47        0    0.0000
    755 H         195.7803  146.4526  152.7986 H        47        0    0.0000
    756 H         195.5672  144.9455  153.6810 H        47        0    0.0000
    757 C         197.1639  144.8889  157.3948 C.3      48        0    0.0000
    758 C         196.6390  144.8461  155.9679 C.3      48        0    0.0000
    759 C         197.4910  145.8942  155.2409 C.3      48        0    0.0000
    760 C         197.6029  145.7087  153.7223 C.3      48        0    0.0000
    761 C         198.8317  145.9429  156.0023 C.3      48        0    0.0000
    762 C         198.6783  144.9878  157.2001 C.3      48        0    0.0000
    763 C         199.3959  145.4389  158.4746 C.3      48        0    0.0000
    764 H         196.7735  145.7711  157.9167 H        48        0    0.0000
    765 H         196.8770  143.9992  157.9637 H        48        0    0.0000
    766 H         196.7801  143.8410  155.5559 H        48        0    0.0000
    767 H         195.5712  145.0813  155.9181 H        48        0    0.0000
    768 H         197.0052  146.8687  155.3987 H        48        0    0.0000
    769 H         198.0838  146.5944  153.2902 H        48        0    0.0000
    770 H         198.2635  144.8591  153.5128 H        48        0    0.0000
    771 H         199.0153  146.9718  156.3361 H        48        0    0.0000
    772 H         199.6877  145.6530  155.3839 H        48        0    0.0000
    773 H         199.0521  143.9981  156.8997 H        48        0    0.0000
    774 H         199.5686  146.5214  158.4485 H        48        0    0.0000
    775 H         198.7526  145.2439  159.3409 H        48        0    0.0000
    776 C         202.9969  145.8321  160.8019 C.3      49        0    0.0000
    777 C         202.5582  144.4096  160.4438 C.3      49        0    0.0000
    778 C         201.0500  144.4713  160.1781 C.3      49        0    0.0000
    779 C         200.7520  144.7090  158.6857 C.3      49        0    0.0000
    780 C         200.6072  145.6116  161.1038 C.3      49        0    0.0000
    781 C         201.7129  146.6617  160.9687 C.3      49        0    0.0000
    782 C         201.7369  147.6384  162.1499 C.3      49        0    0.0000
    783 H         203.6045  145.8133  161.7138 H        49        0    0.0000
    784 H         203.6199  146.2552  160.0056 H        49        0    0.0000
    785 H         202.7480  143.7543  161.3033 H        49        0    0.0000
    786 H         203.1288  144.0057  159.6013 H        49        0    0.0000
    787 H         200.5787  143.5303  160.4898 H        49        0    0.0000
    788 H         200.7064  143.7427  158.1691 H        49        0    0.0000
    789 H         201.5534  145.2816  158.2068 H        49        0    0.0000
    790 H         200.5574  145.2425  162.1366 H        49        0    0.0000
    791 H         199.6237  146.0210  160.8546 H        49        0    0.0000
    792 H         201.5430  147.2267  160.0414 H        49        0    0.0000
    793 H         200.9440  148.3875  162.0414 H        49        0    0.0000
    794 H         202.6893  148.1816  162.1538 H        49        0    0.0000
    795 C         201.5754  146.9035  163.5116 C.3      50        0    0.0000
    796 C         201.6277  147.8334  164.7323 C.3      50        0    0.0000
    797 H         200.5911  146.4184  163.4950 H        50        0    0.0000
    798 H         202.3188  146.1015  163.5890 H        50        0    0.0000
    799 H         202.3644  148.6332  164.5932 H        50        0    0.0000
    800 H         200.6496  148.3214  164.8306 H        50        0    0.0000
    801 C         205.4658  145.8842  166.5235 C.3      51        0    0.0000
    802 C         204.4802  146.8813  165.9338 C.3      51        0    0.0000
    803 C         203.1277  146.1702  166.0672 C.3      51        0    0.0000
    804 C         201.9018  147.0921  166.0865 C.3      51        0    0.0000
    805 C         203.2685  145.2307  167.2826 C.3      51        0    0.0000
    806 C         204.7274  145.3610  167.7572 C.3      51        0    0.0000
    807 C         205.3442  144.0668  168.2935 C.3      51        0    0.0000
    808 H         205.6628  145.0765  165.8080 H        51        0    0.0000
    809 H         206.4199  146.3544  166.7807 H        51        0    0.0000
    810 H         204.5152  147.8136  166.5077 H        51        0    0.0000
    811 H         204.7153  147.1207  164.8920 H        51        0    0.0000
    812 H         203.0156  145.5247  165.1833 H        51        0    0.0000
    813 H         201.0162  146.5009  166.3484 H        51        0    0.0000
    814 H         202.0272  147.8383  166.8801 H        51        0    0.0000
    815 H         203.0438  144.2039  166.9679 H        51        0    0.0000
    816 H         202.5747  145.4720  168.0948 H        51        0    0.0000
    817 H         204.7666  146.1362  168.5364 H        51        0    0.0000
    818 H         204.9825  143.2078  167.7160 H        51        0    0.0000
    819 H         206.4319  144.1009  168.1588 H        51        0    0.0000
    820 C         203.6728  146.2884  171.5084 C.3      52        0    0.0000
    821 C         204.7887  146.2765  170.4603 C.3      52        0    0.0000
    822 C         205.5785  144.9811  170.6776 C.3      52        0    0.0000
    823 C         205.0348  143.8381  169.7996 C.3      52        0    0.0000
    824 C         205.4165  144.7554  172.1862 C.3      52        0    0.0000
    825 C         203.9583  145.1236  172.4710 C.3      52        0    0.0000
    826 C         203.7170  145.4481  173.9496 C.3      52        0    0.0000
    827 H         203.6547  147.2581  172.0186 H        52        0    0.0000
    828 H         202.6950  146.1542  171.0318 H        52        0    0.0000
    829 H         205.4478  147.1361  170.6360 H        52        0    0.0000
    830 H         204.3957  146.3772  169.4435 H        52        0    0.0000
    831 H         206.6360  145.1449  170.4339 H        52        0    0.0000
    832 H         203.9466  143.7764  169.9216 H        52        0    0.0000
    833 H         205.4395  142.8697  170.1127 H        52        0    0.0000
    834 H         206.0921  145.4295  172.7289 H        52        0    0.0000
    835 H         205.6485  143.7343  172.5035 H        52        0    0.0000
    836 H         203.3235  144.2737  172.1837 H        52        0    0.0000
    837 H         203.1590  144.6371  174.4319 H        52        0    0.0000
    838 H         203.0986  146.3501  174.0282 H        52        0    0.0000
    839 C         205.0503  145.6885  174.7143 C.3      53        0    0.0000
    840 C         205.1102  147.0308  175.4572 C.3      53        0    0.0000
    841 H         205.8518  145.6783  173.9645 H        53        0    0.0000
    842 H         205.2443  144.8486  175.3917 H        53        0    0.0000
    843 H         204.6693  147.7988  174.8088 H        53        0    0.0000
    844 H         204.5057  147.0079  176.3716 H        53        0    0.0000
    845 C         209.6749  145.4583  176.4052 C.3      54        0    0.0000
    846 C         208.8265  146.3792  175.5417 C.3      54        0    0.0000
    847 C         207.4689  146.3559  176.2470 C.3      54        0    0.0000
    848 C         206.5651  147.5064  175.7974 C.3      54        0    0.0000
    849 C         207.8334  146.3701  177.7429 C.3      54        0    0.0000
    850 C         209.2808  145.8450  177.8363 C.3      54        0    0.0000
    851 C         209.5214  144.7634  178.8971 C.3      54        0    0.0000
    852 H         210.7450  145.5992  176.2236 H        54        0    0.0000
    853 H         209.4310  144.4151  176.1771 H        54        0    0.0000
    854 H         209.2513  147.3904  175.5339 H        54        0    0.0000
    855 H         208.7618  146.0267  174.5077 H        54        0    0.0000
    856 H         206.9805  145.3965  176.0221 H        54        0    0.0000
    857 H         206.5203  148.2783  176.5748 H        54        0    0.0000
    858 H         206.9974  147.9805  174.9081 H        54        0    0.0000
    859 H         207.7960  147.3880  178.1507 H        54        0    0.0000
    860 H         207.1210  145.7712  178.3200 H        54        0    0.0000
    861 H         209.9078  146.7030  178.1214 H        54        0    0.0000
    862 H         210.5643  144.8151  179.2314 H        54        0    0.0000
    863 H         209.3879  143.7773  178.4363 H        54        0    0.0000
    864 C         210.6824  143.2495  182.8536 C.3      55        0    0.0000
    865 C         210.4819  143.6094  181.3894 C.3      55        0    0.0000
    866 C         208.9886  143.9497  181.3051 C.3      55        0    0.0000
    867 C         208.5895  144.8627  180.1389 C.3      55        0    0.0000
    868 C         208.5968  144.4581  182.7079 C.3      55        0    0.0000
    869 C         209.8545  144.3092  183.5834 C.3      55        0    0.0000
    870 C         209.5792  143.9247  185.0392 C.3      55        0    0.0000
    871 H         210.2991  142.2413  183.0527 H        55        0    0.0000
    872 H         211.7378  143.2780  183.1416 H        55        0    0.0000
    873 H         211.1158  144.4650  181.1326 H        55        0    0.0000
    874 H         210.7509  142.7823  180.7249 H        55        0    0.0000
    875 H         208.4512  143.0016  181.1538 H        55        0    0.0000
    876 H         207.5661  144.6185  179.8300 H        55        0    0.0000
    877 H         208.5726  145.9022  180.4873 H        55        0    0.0000
    878 H         207.7713  143.8458  183.0917 H        55        0    0.0000
    879 H         208.2474  145.4959  182.7065 H        55        0    0.0000
    880 H         210.4078  145.2592  183.5535 H        55        0    0.0000
    881 H         210.4521  143.4186  185.4683 H        55        0    0.0000
    882 H         209.4209  144.8345  185.6305 H        55        0    0.0000
    883 C         208.3318  143.0092  185.1886 C.3      56        0    0.0000
    884 C         207.4120  143.3936  186.3562 C.3      56        0    0.0000
    885 H         208.7046  141.9928  185.3692 H        56        0    0.0000
    886 H         207.7814  142.9773  184.2409 H        56        0    0.0000
    887 H         207.8134  142.9376  187.2703 H        56        0    0.0000
    888 H         207.4093  144.4774  186.5218 H        56        0    0.0000
    889 C         204.0491  140.1868  184.4845 C.3      57        0    0.0000
    890 C         204.8143  140.6030  185.7430 C.3      57        0    0.0000
    891 C         205.8592  141.6424  185.2992 C.3      57        0    0.0000
    892 C         205.9388  142.8790  186.2029 C.3      57        0    0.0000
    893 C         205.4614  141.9944  183.8623 C.3      57        0    0.0000
    894 C         204.8716  140.6980  183.2966 C.3      57        0    0.0000
    895 C         205.9597  139.7068  182.8423 C.3      57        0    0.0000
    896 H         203.8607  139.1093  184.4599 H        57        0    0.0000
    897 H         203.0707  140.6843  184.4852 H        57        0    0.0000
    898 H         204.1178  140.9932  186.4933 H        57        0    0.0000
    899 H         205.3171  139.7363  186.1878 H        57        0    0.0000
    900 H         206.8428  141.1520  185.2706 H        57        0    0.0000
    901 H         205.3322  143.6839  185.7711 H        57        0    0.0000
    902 H         205.5179  142.6591  187.1908 H        57        0    0.0000
    903 H         206.3118  142.3642  183.2802 H        57        0    0.0000
    904 H         204.6924  142.7778  183.8598 H        57        0    0.0000
    905 H         204.2139  140.9318  182.4498 H        57        0    0.0000
    906 H         205.6546  138.6712  183.0290 H        57        0    0.0000
    907 H         206.8740  139.8790  183.4225 H        57        0    0.0000
    908 C         206.3038  139.8781  181.3343 C.3      58        0    0.0000
    909 C         206.2971  138.5644  180.5396 C.3      58        0    0.0000
    910 H         205.5376  140.5381  180.9075 H        58        0    0.0000
    911 H         207.2614  140.4019  181.2310 H        58        0    0.0000
    912 H         207.0866  138.5543  179.7790 H        58        0    0.0000
    913 H         206.5206  137.7449  181.2347 H        58        0    0.0000
    914 C         202.2592  138.7266  178.0123 C.3      59        0    0.0000
    915 C         203.7531  138.7428  177.6776 C.3      59        0    0.0000
    916 C         204.4680  139.3333  178.8979 C.3      59        0    0.0000
    917 C         204.9176  138.2296  179.8738 C.3      59        0    0.0000
    918 C         203.4064  140.2862  179.4620 C.3      59        0    0.0000
    919 C         202.0911  139.5157  179.3214 C.3      59        0    0.0000
    920 C         200.8681  140.4393  179.3536 C.3      59        0    0.0000
    921 H         201.6897  139.1635  177.1842 H        59        0    0.0000
    922 H         201.9045  137.6978  178.1427 H        59        0    0.0000
    923 H         203.9142  139.3974  176.8117 H        59        0    0.0000
    924 H         204.1208  137.7495  177.4006 H        59        0    0.0000
    925 H         205.3488  139.9022  178.5737 H        59        0    0.0000
    926 H         205.0202  137.2847  179.3265 H        59        0    0.0000
    927 H         204.1675  138.0589  180.6534 H        59        0    0.0000
    928 H         203.3788  141.2000  178.8542 H        59        0    0.0000
    929 H         203.5939  140.5871  180.4971 H        59        0    0.0000
    930 H         202.0190  138.7985  180.1511 H        59        0    0.0000
    931 H         201.1122  141.3777  179.8650 H        59        0    0.0000
    932 H         200.0667  139.9621  179.9299 H        59        0    0.0000
    933 C         197.4584  143.1494  177.3844 C.3      60        0    0.0000
    934 C         198.7960  142.8279  178.0331 C.3      60        0    0.0000
    935 C         198.9102  141.3055  177.8837 C.3      60        0    0.0000
    936 C         200.3389  140.7486  177.9237 C.3      60        0    0.0000
    937 C         198.0955  140.9479  176.6235 C.3      60        0    0.0000
    938 C         197.4608  142.2635  176.1369 C.3      60        0    0.0000
    939 C         196.0625  142.1144  175.5322 C.3      60        0    0.0000
    940 H         196.6354  142.8819  178.0583 H        60        0    0.0000
    941 H         197.3676  144.2116  177.1375 H        60        0    0.0000
    942 H         199.5961  143.3562  177.5036 H        60        0    0.0000
    943 H         198.8266  143.1391  179.0820 H        60        0    0.0000
    944 H         198.3797  140.8583  178.7375 H        60        0    0.0000
    945 H         200.3790  139.8287  177.3282 H        60        0    0.0000
    946 H         201.0159  141.4641  177.4422 H        60        0    0.0000
    947 H         197.3272  140.2122  176.8922 H        60        0    0.0000
    948 H         198.7037  140.4964  175.8326 H        60        0    0.0000
    949 H         198.1348  142.7157  175.3948 H        60        0    0.0000
    950 H         195.5929  141.1900  175.8887 H        60        0    0.0000
    951 H         195.4295  142.9414  175.8751 H        60        0    0.0000
    952 C         194.0097  145.1233  173.0466 C.3      61        0    0.0000
    953 C         194.6036  144.1822  174.0980 C.3      61        0    0.0000
    954 C         194.8851  142.8562  173.3791 C.3      61        0    0.0000
    955 C         196.0821  142.1123  173.9778 C.3      61        0    0.0000
    956 C         195.0642  143.2832  171.9184 C.3      61        0    0.0000
    957 C         193.9571  144.3268  171.7363 C.3      61        0    0.0000
    958 C         194.1200  145.2214  170.5044 C.3      61        0    0.0000
    959 H         193.0115  145.4685  173.3368 H        61        0    0.0000
    960 H         194.6456  146.0116  172.9510 H        61        0    0.0000
    961 H         193.9159  144.0353  174.9378 H        61        0    0.0000
    962 H         195.5227  144.6217  174.5038 H        61        0    0.0000
    963 H         193.9851  142.2285  173.4533 H        61        0    0.0000
    964 H         197.0102  142.5889  173.6401 H        61        0    0.0000
    965 H         196.1076  141.0782  173.6145 H        61        0    0.0000
    966 H         194.9494  142.4406  171.2291 H        61        0    0.0000
    967 H         196.0540  143.7284  171.7577 H        61        0    0.0000
    968 H         192.9890  143.8068  171.6901 H        61        0    0.0000
    969 H         193.8854  146.2622  170.7565 H        61        0    0.0000
    970 H         193.4016  144.9129  169.7354 H        61        0    0.0000
    971 C         195.5503  145.1448  169.9034 C.3      62        0    0.0000
    972 C         195.7888  146.1122  168.7351 C.3      62        0    0.0000
    973 H         196.2473  145.4065  170.7098 H        62        0    0.0000
    974 H         195.7759  144.1107  169.6174 H        62        0    0.0000
    975 H         196.7745  145.9548  168.2818 H        62        0    0.0000
    976 H         195.0469  145.8946  167.9561 H        62        0    0.0000
    977 C         196.2528  148.1121  165.5326 C.3      63        0    0.0000
    978 C         195.1965  148.0637  166.6354 C.3      63        0    0.0000
    979 C         195.8806  148.5542  167.9232 C.3      63        0    0.0000
    980 C         195.6167  147.6238  169.1145 C.3      63        0    0.0000
    981 C         197.3651  148.6886  167.5506 C.3      63        0    0.0000
    982 C         197.3669  149.0236  166.0536 C.3      63        0    0.0000
    983 C         197.0868  150.5043  165.7384 C.3      63        0    0.0000
    984 H         196.6540  147.1018  165.3810 H        63        0    0.0000
    985 H         195.8345  148.4406  164.5760 H        63        0    0.0000
    986 H         194.7876  147.0517  166.7286 H        63        0    0.0000
    987 H         194.3596  148.7275  166.3879 H        63        0    0.0000
    988 H         195.4856  149.5534  168.1551 H        63        0    0.0000
    989 H         194.6096  147.7919  169.5133 H        63        0    0.0000
    990 H         196.3204  147.8607  169.9216 H        63        0    0.0000
    991 H         197.8746  149.4414  168.1600 H        63        0    0.0000
    992 H         197.8846  147.7340  167.7054 H        63        0    0.0000
    993 H         198.3240  148.7327  165.6022 H        63        0    0.0000
    994 H         196.5487  150.9906  166.5591 H        63        0    0.0000
    995 H         196.4378  150.5690  164.8566 H        63        0    0.0000
    996 C         197.4671  153.9100  162.8788 C.3      64        0    0.0000
    997 C         198.4372  152.8598  163.4262 C.3      64        0    0.0000
    998 C         198.1102  152.7073  164.9175 C.3      64        0    0.0000
    999 C         198.3916  151.2934  165.4335 C.3      64        0    0.0000
   1000 C         196.6411  153.1356  164.9974 C.3      64        0    0.0000
   1001 C         196.5944  154.3484  164.0621 C.3      64        0    0.0000
   1002 C         195.1867  154.7631  163.6249 C.3      64        0    0.0000
   1003 H         198.0022  154.7632  162.4481 H        64        0    0.0000
   1004 H         196.8637  153.4669  162.0775 H        64        0    0.0000
   1005 H         199.4795  153.1639  163.2818 H        64        0    0.0000
   1006 H         198.2964  151.9160  162.8859 H        64        0    0.0000
   1007 H         198.7180  153.4329  165.4775 H        64        0    0.0000
   1008 H         198.9848  151.3552  166.3537 H        64        0    0.0000
   1009 H         198.9936  150.7360  164.7063 H        64        0    0.0000
   1010 H         196.3459  153.3953  166.0190 H        64        0    0.0000
   1011 H         195.9791  152.3373  164.6391 H        64        0    0.0000
   1012 H         197.0912  155.1942  164.5594 H        64        0    0.0000
   1013 H         194.5506  154.9321  164.5016 H        64        0    0.0000
   1014 H         194.7291  153.9454  163.0552 H        64        0    0.0000
   1015 C         195.1950  156.0386  162.7384 C.3      65        0    0.0000
   1016 C         193.8281  156.3849  162.1308 C.3      65        0    0.0000
   1017 H         195.8951  155.8476  161.9150 H        65        0    0.0000
   1018 H         195.6035  156.8817  163.3079 H        65        0    0.0000
   1019 H         193.4490  155.4933  161.6153 H        65        0    0.0000
   1020 H         193.0966  156.6318  162.9091 H        65        0    0.0000
   1021 C         190.9421  159.6061  160.1320 C.3      66        0    0.0000
   1022 C         191.5464  158.6397  161.1537 C.3      66        0    0.0000
   1023 C         192.5203  157.7332  160.3796 C.3      66        0    0.0000
   1024 C         193.8769  157.5361  161.0673 C.3      66        0    0.0000
   1025 C         192.6535  158.4002  159.0068 C.3      66        0    0.0000
   1026 C         191.2821  159.0345  158.7513 C.3      66        0    0.0000
   1027 C         190.2462  158.0114  158.2478 C.3      66        0    0.0000
   1028 H         189.8707  159.7553  160.2966 H        66        0    0.0000
   1029 H         191.4241  160.5857  160.2444 H        66        0    0.0000
   1030 H         192.0353  159.2014  161.9574 H        66        0    0.0000
   1031 H         190.7597  158.0318  161.6156 H        66        0    0.0000
   1032 H         192.0413  156.7538  160.2382 H        66        0    0.0000
   1033 H         194.6323  157.2824  160.3141 H        66        0    0.0000
   1034 H         194.2036  158.4677  161.5437 H        66        0    0.0000
   1035 H         192.9427  157.6851  158.2298 H        66        0    0.0000
   1036 H         193.4199  159.1854  159.0364 H        66        0    0.0000
   1037 H         191.3822  159.8443  158.0175 H        66        0    0.0000
   1038 H         189.6811  157.5780  159.0803 H        66        0    0.0000
   1039 H         190.7648  157.1837  157.7496 H        66        0    0.0000
   1040 C         186.6889  161.0927  158.1749 C.3      67        0    0.0000
   1041 C         187.7394  160.1026  158.6755 C.3      67        0    0.0000
   1042 C         188.8581  160.0753  157.6197 C.3      67        0    0.0000
   1043 C         189.2561  158.6460  157.2285 C.3      67        0    0.0000
   1044 C         188.3156  160.9155  156.4533 C.3      67        0    0.0000
   1045 C         187.3833  161.9427  157.1078 C.3      67        0    0.0000
   1046 C         188.1105  163.1512  157.7252 C.3      67        0    0.0000
   1047 H         185.8661  160.5331  157.7119 H        67        0    0.0000
   1048 H         186.2593  161.6840  158.9897 H        67        0    0.0000
   1049 H         187.2876  159.1189  158.8437 H        67        0    0.0000
   1050 H         188.1485  160.4376  159.6360 H        67        0    0.0000
   1051 H         189.7337  160.5875  158.0430 H        67        0    0.0000
   1052 H         189.7005  158.6350  156.2265 H        67        0    0.0000
   1053 H         188.3572  158.0195  157.1829 H        67        0    0.0000
   1054 H         189.1194  161.3751  155.8699 H        67        0    0.0000
   1055 H         187.7320  160.2856  155.7693 H        67        0    0.0000
   1056 H         186.6431  162.2994  156.3801 H        67        0    0.0000
   1057 H         188.9155  162.8308  158.3952 H        67        0    0.0000
   1058 H         187.4031  163.7240  158.3372 H        67        0    0.0000
   1059 C         188.6868  164.1032  156.6392 C.3      68        0    0.0000
   1060 C         190.1055  163.7386  156.1792 C.3      68        0    0.0000
   1061 H         188.0190  164.0343  155.7708 H        68        0    0.0000
   1062 H         188.6359  165.1400  156.9920 H        68        0    0.0000
   1063 H         190.6755  164.6319  155.8977 H        68        0    0.0000
   1064 H         190.6326  163.2848  157.0281 H        68        0    0.0000
   1065 C         187.1034  162.8671  156.2273 C.3      69        0    0.0000
   1066 C         188.2076  161.8195  156.3928 C.3      69        0    0.0000
   1067 C         188.9395  161.7400  155.0486 C.3      69        0    0.0000
   1068 C         190.1476  162.6948  155.0098 C.3      69        0    0.0000
   1069 C         187.8239  162.0863  154.0544 C.3      69        0    0.0000
   1070 C         187.0501  163.2204  154.7316 C.3      69        0    0.0000
   1071 C         185.6340  163.3786  154.1666 C.3      69        0    0.0000
   1072 H         186.1532  162.4647  156.5964 H        69        0    0.0000
   1073 H         187.3288  163.7615  156.8194 H        69        0    0.0000
   1074 H         187.7441  160.8489  156.6107 H        69        0    0.0000
   1075 H         188.8704  162.0532  157.2322 H        69        0    0.0000
   1076 H         189.2907  160.7144  154.8765 H        69        0    0.0000
   1077 H         190.1435  163.2426  154.0597 H        69        0    0.0000
   1078 H         191.0923  162.1420  155.0475 H        69        0    0.0000
   1079 H         187.1747  161.2116  153.9177 H        69        0    0.0000
   1080 H         188.1928  162.3778  153.0665 H        69        0    0.0000
   1081 H         187.6030  164.1577  154.5774 H        69        0    0.0000
   1082 H         185.0398  164.0410  154.8067 H        69        0    0.0000
   1083 H         185.1318  162.4039  154.1646 H        69        0    0.0000
   1084 C         183.0998  165.9523  150.7455 C.3      70        0    0.0000
   1085 C         184.2147  164.9169  150.7940 C.3      70        0    0.0000
   1086 C         184.3523  164.6329  152.2934 C.3      70        0    0.0000
   1087 C         185.6495  163.9354  152.7140 C.3      70        0    0.0000
   1088 C         184.0654  165.9780  152.9891 C.3      70        0    0.0000
   1089 C         183.4514  166.8877  151.9070 C.3      70        0    0.0000
   1090 C         182.3185  167.8038  152.3796 C.3      70        0    0.0000
   1091 H         183.0728  166.4794  149.7868 H        70        0    0.0000
   1092 H         182.1316  165.4607  150.8909 H        70        0    0.0000
   1093 H         183.9610  164.0162  150.2265 H        70        0    0.0000
   1094 H         185.1314  165.3401  150.3688 H        70        0    0.0000
   1095 H         183.5300  163.9544  152.5662 H        70        0    0.0000
   1096 H         185.8523  163.1092  152.0222 H        70        0    0.0000
   1097 H         186.4836  164.6403  152.6159 H        70        0    0.0000
   1098 H         184.9677  166.4487  153.3943 H        70        0    0.0000
   1099 H         183.3941  165.8145  153.8390 H        70        0    0.0000
   1100 H         184.2587  167.5464  151.5529 H        70        0    0.0000
   1101 H         182.5833  168.8444  152.1576 H        70        0    0.0000
   1102 H         181.4126  167.5796  151.8040 H        70        0    0.0000
   1103 C         181.9892  167.6841  153.8979 C.3      71        0    0.0000
   1104 C         180.8653  168.6186  154.3681 C.3      71        0    0.0000
   1105 H         182.9039  167.9509  154.4425 H        71        0    0.0000
   1106 H         181.7696  166.6393  154.1470 H        71        0    0.0000
   1107 H         181.1944  169.6536  154.2095 H        71        0    0.0000
   1108 H         179.9572  168.4833  153.7690 H        71        0    0.0000
   1109 C         180.5188  168.4822  155.8913 C.3      72        0    0.0000
   1110 C         179.3171  169.3283  156.3358 C.3      72        0    0.0000
   1111 H         181.4004  168.8238  156.4486 H        72        0    0.0000
   1112 H         180.3779  167.4250  156.1449 H        72        0    0.0000
   1113 H         179.5994  170.3862  156.2612 H        72        0    0.0000
   1114 H         178.4595  169.1848  155.6682 H        72        0    0.0000
   1115 C         177.0099  172.0490  159.2087 C.3      73        0    0.0000
   1116 C         177.9120  170.8273  159.4020 C.3      73        0    0.0000
   1117 C         177.6449  169.9014  158.2080 C.3      73        0    0.0000
   1118 C         178.8781  169.0806  157.8206 C.3      73        0    0.0000
   1119 C         177.1527  170.8652  157.1232 C.3      73        0    0.0000
   1120 C         176.2351  171.8104  157.9060 C.3      73        0    0.0000
   1121 C         175.8975  173.1167  157.1820 C.3      73        0    0.0000
   1122 H         176.3259  172.1792  160.0542 H        73        0    0.0000
   1123 H         177.6276  172.9530  159.1483 H        73        0    0.0000
   1124 H         177.6997  170.3188  160.3486 H        73        0    0.0000
   1125 H         178.9600  171.1488  159.4339 H        73        0    0.0000
   1126 H         176.8203  169.2251  158.4767 H        73        0    0.0000
   1127 H         178.6568  168.0139  157.9455 H        73        0    0.0000
   1128 H         179.7141  169.3107  158.4915 H        73        0    0.0000
   1129 H         176.6164  170.3428  156.3247 H        73        0    0.0000
   1130 H         177.9909  171.4133  156.6749 H        73        0    0.0000
   1131 H         175.3073  171.2740  158.1526 H        73        0    0.0000
   1132 H         175.2438  172.9182  156.3246 H        73        0    0.0000
   1133 H         176.8186  173.5573  156.7819 H        73        0    0.0000
   1134 C         171.4944  174.6306  158.6971 C.3      74        0    0.0000
   1135 C         172.9393  174.9737  159.0320 C.3      74        0    0.0000
   1136 C         173.7186  174.3342  157.8782 C.3      74        0    0.0000
   1137 C         175.2204  174.1539  158.1194 C.3      74        0    0.0000
   1138 C         172.9429  173.0493  157.5277 C.3      74        0    0.0000
   1139 C         171.5856  173.1686  158.2480 C.3      74        0    0.0000
   1140 C         170.3760  172.6435  157.4687 C.3      74        0    0.0000
   1141 H         170.8340  174.7551  159.5609 H        74        0    0.0000
   1142 H         171.1345  175.2861  157.8964 H        74        0    0.0000
   1143 H         173.1004  176.0547  159.0877 H        74        0    0.0000
   1144 H         173.2076  174.5393  160.0013 H        74        0    0.0000
   1145 H         173.6196  175.0085  157.0141 H        74        0    0.0000
   1146 H         175.7216  175.1211  157.9949 H        74        0    0.0000
   1147 H         175.3820  173.8468  159.1595 H        74        0    0.0000
   1148 H         173.4545  172.1393  157.8593 H        74        0    0.0000
   1149 H         172.8419  172.9678  156.4400 H        74        0    0.0000
   1150 H         171.6578  172.5584  159.1610 H        74        0    0.0000
   1151 H         170.7274  172.1257  156.5684 H        74        0    0.0000
   1152 H         169.8537  171.8965  158.0782 H        74        0    0.0000
   1153 C         169.3583  173.7457  157.0471 C.3      75        0    0.0000
   1154 C         168.1297  173.8435  157.9628 C.3      75        0    0.0000
   1155 H         169.8925  174.7034  157.0907 H        75        0    0.0000
   1156 H         169.0654  173.5974  156.0011 H        75        0    0.0000
   1157 H         167.3160  173.1998  157.6086 H        75        0    0.0000
   1158 H         168.4144  173.4718  158.9554 H        75        0    0.0000
   1159 C         169.5237  177.7653  156.2349 C.3      76        0    0.0000
   1160 C         169.2557  176.2818  156.4841 C.3      76        0    0.0000
   1161 C         167.7803  176.1648  156.9043 C.3      76        0    0.0000
   1162 C         167.5984  175.3052  158.1622 C.3      76        0    0.0000
   1163 C         167.3027  177.6165  157.0636 C.3      76        0    0.0000
   1164 C         168.1505  178.4215  156.0705 C.3      76        0    0.0000
   1165 C         167.6544  178.3498  154.6148 C.3      76        0    0.0000
   1166 H         170.0232  178.1884  157.1158 H        76        0    0.0000
   1167 H         170.1871  177.9255  155.3792 H        76        0    0.0000
   1168 H         169.9464  175.8905  157.2390 H        76        0    0.0000
   1169 H         169.4231  175.7070  155.5657 H        76        0    0.0000
   1170 H         167.2286  175.7038  156.0728 H        76        0    0.0000
   1171 H         166.5425  175.2773  158.4551 H        76        0    0.0000
   1172 H         168.1461  175.7622  158.9952 H        76        0    0.0000
   1173 H         166.2269  177.7160  156.8897 H        76        0    0.0000
   1174 H         167.5056  177.9746  158.0814 H        76        0    0.0000
   1175 H         168.2032  179.4722  156.3831 H        76        0    0.0000
   1176 H         167.6092  177.3142  154.2609 H        76        0    0.0000
   1177 H         168.3669  178.8720  153.9647 H        76        0    0.0000
   1178 C         166.0168  181.6533  157.0419 C.3      77        0    0.0000
   1179 C         166.7455  180.3932  156.5686 C.3      77        0    0.0000
   1180 C         165.7234  179.5693  155.7651 C.3      77        0    0.0000
   1181 C         166.2625  179.0201  154.4385 C.3      77        0    0.0000
   1182 C         164.5392  180.5204  155.5645 C.3      77        0    0.0000
   1183 C         164.5227  181.3876  156.8279 C.3      77        0    0.0000
   1184 C         163.8575  180.6752  158.0208 C.3      77        0    0.0000
   1185 H         166.2762  181.9107  158.0732 H        77        0    0.0000
   1186 H         166.3258  182.4975  156.4123 H        77        0    0.0000
   1187 H         167.6272  180.6691  155.9796 H        77        0    0.0000
   1188 H         167.0992  179.8116  157.4279 H        77        0    0.0000
   1189 H         165.3860  178.7318  156.3923 H        77        0    0.0000
   1190 H         165.5638  178.2726  154.0442 H        77        0    0.0000
   1191 H         166.3276  179.8194  153.6913 H        77        0    0.0000
   1192 H         163.6004  179.9792  155.4080 H        77        0    0.0000
   1193 H         164.7052  181.1572  154.6859 H        77        0    0.0000
   1194 H         163.9939  182.3271  156.6225 H        77        0    0.0000
   1195 H         164.2956  181.0010  158.9707 H        77        0    0.0000
   1196 H         164.0319  179.5955  157.9432 H        77        0    0.0000
   1197 C         159.7061  181.1083  155.3181 C.3      78        0    0.0000
   1198 C         160.4271  180.3076  156.3917 C.3      78        0    0.0000
   1199 C         161.6846  181.1389  156.6752 C.3      78        0    0.0000
   1200 C         162.3203  180.9162  158.0534 C.3      78        0    0.0000
   1201 C         161.3022  182.5977  156.3506 C.3      78        0    0.0000
   1202 C         159.8641  182.5510  155.8026 C.3      78        0    0.0000
   1203 C         159.5672  183.5669  154.6968 C.3      78        0    0.0000
   1204 H         160.1911  180.9620  154.3453 H        78        0    0.0000
   1205 H         158.6558  180.8158  155.2249 H        78        0    0.0000
   1206 H         159.7844  180.2165  157.2740 H        78        0    0.0000
   1207 H         160.6733  179.2969  156.0513 H        78        0    0.0000
   1208 H         162.4408  180.8405  155.9338 H        78        0    0.0000
   1209 H         162.1153  181.7889  158.6849 H        78        0    0.0000
   1210 H         161.8371  180.0587  158.5364 H        78        0    0.0000
   1211 H         162.0000  182.9911  155.6009 H        78        0    0.0000
   1212 H         161.3634  183.2613  157.2195 H        78        0    0.0000
   1213 H         159.1718  182.7101  156.6421 H        78        0    0.0000
   1214 H         160.4994  183.8853  154.2153 H        78        0    0.0000
   1215 H         158.9590  183.0890  153.9196 H        78        0    0.0000
   1216 C         156.9813  186.8026  152.5479 C.3      79        0    0.0000
   1217 C         158.2187  186.0568  153.0276 C.3      79        0    0.0000
   1218 C         157.7176  185.3356  154.2831 C.3      79        0    0.0000
   1219 C         158.8099  184.8180  155.2240 C.3      79        0    0.0000
   1220 C         156.6919  186.2939  154.9194 C.3      79        0    0.0000
   1221 C         156.3935  187.3609  153.8481 C.3      79        0    0.0000
   1222 C         154.9357  187.8237  153.7651 C.3      79        0    0.0000
   1223 H         157.2320  187.5953  151.8363 H        79        0    0.0000
   1224 H         156.2973  186.1046  152.0527 H        79        0    0.0000
   1225 H         158.5925  185.3575  152.2732 H        79        0    0.0000
   1226 H         159.0172  186.7718  153.2540 H        79        0    0.0000
   1227 H         157.1559  184.4531  153.9413 H        79        0    0.0000
   1228 H         159.5363  185.6193  155.4044 H        79        0    0.0000
   1229 H         158.3614  184.5751  156.1946 H        79        0    0.0000
   1230 H         157.0687  186.7803  155.8256 H        79        0    0.0000
   1231 H         155.8015  185.7306  155.2189 H        79        0    0.0000
   1232 H         156.9884  188.2484  154.1118 H        79        0    0.0000
   1233 H         154.7171  188.1358  152.7369 H        79        0    0.0000
   1234 H         154.2771  186.9746  153.9832 H        79        0    0.0000
   1235 C         154.5795  188.9942  154.7300 C.3      80        0    0.0000
   1236 C         153.1825  189.5886  154.5007 C.3      80        0    0.0000
   1237 H         155.3192  189.7858  154.5545 H        80        0    0.0000
   1238 H         154.7090  188.6690  155.7689 H        80        0    0.0000
   1239 H         152.6450  189.5740  155.4575 H        80        0    0.0000
   1240 H         153.2416  190.6385  154.1905 H        80        0    0.0000
   1241 C         148.9336  189.9398  152.2505 C.3      81        0    0.0000
   1242 C         150.0762  188.9210  152.2588 C.3      81        0    0.0000
   1243 C         151.3277  189.6812  152.7170 C.3      81        0    0.0000
   1244 C         152.3078  188.7839  153.4779 C.3      81        0    0.0000
   1245 C         150.7508  190.8382  153.5395 C.3      81        0    0.0000
   1246 C         149.5423  191.2733  152.7039 C.3      81        0    0.0000
   1247 C         148.5329  192.1500  153.4503 C.3      81        0    0.0000
   1248 H         148.4858  190.0308  151.2551 H        81        0    0.0000
   1249 H         148.1427  189.6070  152.9333 H        81        0    0.0000
   1250 H         150.2258  188.4793  151.2678 H        81        0    0.0000
   1251 H         149.8302  188.1022  152.9456 H        81        0    0.0000
   1252 H         151.8217  190.0962  151.8263 H        81        0    0.0000
   1253 H         152.9750  188.2884  152.7625 H        81        0    0.0000
   1254 H         151.7657  187.9908  154.0061 H        81        0    0.0000
   1255 H         151.4738  191.6501  153.6665 H        81        0    0.0000
   1256 H         150.4381  190.4957  154.5339 H        81        0    0.0000
   1257 H         149.9055  191.8049  151.8123 H        81        0    0.0000
   1258 H         149.0297  193.0374  153.8599 H        81        0    0.0000
   1259 H         148.1296  191.5915  154.3035 H        81        0    0.0000
   1260 C         147.3502  192.5911  152.5451 C.3      82        0    0.0000
   1261 C         146.4948  191.4271  152.0249 C.3      82        0    0.0000
   1262 H         146.7084  193.2390  153.1557 H        82        0    0.0000
   1263 H         147.7261  193.2092  151.7212 H        82        0    0.0000
   1264 H         146.6947  190.5048  152.5829 H        82        0    0.0000
   1265 H         145.4399  191.6759  152.1978 H        82        0    0.0000
   1266 C         149.3087  191.0069  147.9026 C.3      83        0    0.0000
   1267 C         148.5623  190.2570  149.0087 C.3      83        0    0.0000
   1268 C         148.1050  191.3164  150.0274 C.3      83        0    0.0000
   1269 C         146.6506  191.1591  150.4878 C.3      83        0    0.0000
   1270 C         148.3527  192.6547  149.3240 C.3      83        0    0.0000
   1271 C         149.5894  192.4095  148.4528 C.3      83        0    0.0000
   1272 C         150.9006  192.4931  149.2570 C.3      83        0    0.0000
   1273 H         150.2067  190.4706  147.5814 H        83        0    0.0000
   1274 H         148.6525  191.0888  147.0266 H        83        0    0.0000
   1275 H         147.7281  189.6904  148.5804 H        83        0    0.0000
   1276 H         149.2278  189.5350  149.4962 H        83        0    0.0000
   1277 H         148.7686  191.2628  150.9022 H        83        0    0.0000
   1278 H         146.0186  191.8717  149.9446 H        83        0    0.0000
   1279 H         146.2789  190.1566  150.2465 H        83        0    0.0000
   1280 H         148.4907  193.4736  150.0374 H        83        0    0.0000
   1281 H         147.4995  192.9133  148.6835 H        83        0    0.0000
   1282 H         149.6148  193.1416  147.6356 H        83        0    0.0000
   1283 H         151.7678  192.2755  148.6238 H        83        0    0.0000
   1284 H         150.8888  191.7378  150.0518 H        83        0    0.0000
   1285 C         149.4868  197.2386  149.8486 C.3      84        0    0.0000
   1286 C         149.7056  195.9475  150.6410 C.3      84        0    0.0000
   1287 C         149.9100  194.8258  149.6069 C.3      84        0    0.0000
   1288 C         151.0840  193.8896  149.9190 C.3      84        0    0.0000
   1289 C         150.0888  195.5618  148.2752 C.3      84        0    0.0000
   1290 C         149.2094  196.8103  148.4035 C.3      84        0    0.0000
   1291 C         147.7222  196.5114  148.1355 C.3      84        0    0.0000
   1292 H         148.6962  197.8558  150.2857 H        84        0    0.0000
   1293 H         150.4102  197.8313  149.8771 H        84        0    0.0000
   1294 H         150.5593  196.0631  151.3178 H        84        0    0.0000
   1295 H         148.8286  195.7269  151.2607 H        84        0    0.0000
   1296 H         148.9836  194.2366  149.5495 H        84        0    0.0000
   1297 H         152.0129  194.3340  149.5421 H        84        0    0.0000
   1298 H         151.2039  193.7737  151.0023 H        84        0    0.0000
   1299 H         149.8152  194.9351  147.4203 H        84        0    0.0000
   1300 H         151.1359  195.8639  148.1433 H        84        0    0.0000
   1301 H         149.5591  197.5801  147.7038 H        84        0    0.0000
   1302 H         147.3407  195.7510  148.8259 H        84        0    0.0000
   1303 H         147.6090  196.1075  147.1224 H        84        0    0.0000
   1304 C         147.8475  200.2404  150.7922 C.3      85        0    0.0000
   1305 C         148.1828  198.9154  150.1091 C.3      85        0    0.0000
   1306 C         147.6661  199.0211  148.6639 C.3      85        0    0.0000
   1307 C         146.8464  197.7931  148.2463 C.3      85        0    0.0000
   1308 C         146.8804  200.3410  148.6250 C.3      85        0    0.0000
   1309 C         147.5640  201.2372  149.6655 C.3      85        0    0.0000
   1310 C         148.8529  201.9146  149.1652 C.3      85        0    0.0000
   1311 H         146.9399  200.1090  151.3951 H        85        0    0.0000
   1312 H         148.6420  200.5662  151.4709 H        85        0    0.0000
   1313 H         147.7398  198.0787  150.6603 H        85        0    0.0000
   1314 H         149.2677  198.7572  150.1010 H        85        0    0.0000
   1315 H         148.5375  199.1124  148.0002 H        85        0    0.0000
   1316 H         146.3417  197.9789  147.2911 H        85        0    0.0000
   1317 H         146.0606  197.6125  148.9896 H        85        0    0.0000
   1318 H         146.8656  200.7803  147.6228 H        85        0    0.0000
   1319 H         145.8381  200.1727  148.9256 H        85        0    0.0000
   1320 H         146.8655  202.0062  150.0195 H        85        0    0.0000
   1321 H         148.6956  202.4022  148.1971 H        85        0    0.0000
   1322 H         149.6247  201.1510  149.0094 H        85        0    0.0000
   1323 C         150.9376  205.8681  148.4810 C.3      86        0    0.0000
   1324 C         150.3254  204.4745  148.3195 C.3      86        0    0.0000
   1325 C         150.6092  203.7148  149.6277 C.3      86        0    0.0000
   1326 C         149.4017  202.9513  150.1858 C.3      86        0    0.0000
   1327 C         151.1153  204.7917  150.5927 C.3      86        0    0.0000
   1328 C         151.8624  205.7888  149.7006 C.3      86        0    0.0000
   1329 C         153.2854  205.3132  149.3514 C.3      86        0    0.0000
   1330 H         151.4391  206.2011  147.5674 H        86        0    0.0000
   1331 H         150.1328  206.5857  148.6859 H        86        0    0.0000
   1332 H         149.2554  204.5583  148.0995 H        86        0    0.0000
   1333 H         150.7892  203.9495  147.4763 H        86        0    0.0000
   1334 H         151.4306  203.0074  149.4446 H        86        0    0.0000
   1335 H         149.6984  202.4189  151.0973 H        86        0    0.0000
   1336 H         148.6057  203.6491  150.4703 H        86        0    0.0000
   1337 H         151.7469  204.3711  151.3819 H        86        0    0.0000
   1338 H         150.2704  205.2971  151.0784 H        86        0    0.0000
   1339 H         151.9159  206.7633  150.2024 H        86        0    0.0000
   1340 H         153.5363  205.5460  148.3106 H        86        0    0.0000
   1341 H         153.3407  204.2231  149.4562 H        86        0    0.0000
   1342 C         154.3525  205.9447  150.2918 C.3      87        0    0.0000
   1343 C         154.6299  205.1248  151.5600 C.3      87        0    0.0000
   1344 H         155.2848  206.0072  149.7162 H        87        0    0.0000
   1345 H         154.0660  206.9740  150.5371 H        87        0    0.0000
   1346 H         154.4421  204.0575  151.3940 H        87        0    0.0000
   1347 H         155.6960  205.2218  151.8018 H        87        0    0.0000
   1348 C         153.8339  205.6115  152.8202 C.3      88        0    0.0000
   1349 C         152.5247  204.8475  153.0646 C.3      88        0    0.0000
   1350 H         154.4871  205.4540  153.6879 H        88        0    0.0000
   1351 H         153.6586  206.6916  152.7519 H        88        0    0.0000
   1352 H         152.4912  203.9178  152.4845 H        88        0    0.0000
   1353 H         152.4918  204.5582  154.1229 H        88        0    0.0000
   1354 C         149.9813  208.9031  154.3862 C.3      89        0    0.0000
   1355 C         149.8457  207.4064  154.1429 C.3      89        0    0.0000
   1356 C         151.1927  207.0394  153.5116 C.3      89        0    0.0000
   1357 C         151.2329  205.6913  152.7856 C.3      89        0    0.0000
   1358 C         151.5899  208.2632  152.6629 C.3      89        0    0.0000
   1359 C         150.6443  209.4001  153.0974 C.3      89        0    0.0000
   1360 C         151.2787  210.7919  153.1788 C.3      89        0    0.0000
   1361 H         149.0110  209.3787  154.5594 H        89        0    0.0000
   1362 H         150.6087  209.0794  155.2669 H        89        0    0.0000
   1363 H         149.6631  206.8563  155.0712 H        89        0    0.0000
   1364 H         149.0070  207.2164  153.4642 H        89        0    0.0000
   1365 H         151.9225  206.9741  154.3326 H        89        0    0.0000
   1366 H         150.3565  205.1008  153.0782 H        89        0    0.0000
   1367 H         151.1508  205.8630  151.7058 H        89        0    0.0000
   1368 H         151.4819  208.0883  151.5870 H        89        0    0.0000
   1369 H         152.6458  208.4993  152.8329 H        89        0    0.0000
   1370 H         149.8530  209.4615  152.3350 H        89        0    0.0000
   1371 H         150.6336  211.4449  153.7785 H        89        0    0.0000
   1372 H         152.2349  210.7193  153.7105 H        89        0    0.0000
   1373 C         151.5251  211.4653  151.7953 C.3      90        0    0.0000
   1374 C         152.2558  212.8130  151.8789 C.3      90        0    0.0000
   1375 H         152.1494  210.7750  151.2137 H        90        0    0.0000
   1376 H         150.5754  211.5592  151.2558 H        90        0    0.0000
   1377 H         151.9123  213.4005  152.7384 H        90        0    0.0000
   1378 H         153.3225  212.6125  152.0421 H        90        0    0.0000
   1379 C         154.1732  216.8133  149.9218 C.3      91        0    0.0000
   1380 C         154.1218  215.3237  150.2253 C.3      91        0    0.0000
   1381 C         152.6848  215.1073  150.7166 C.3      91        0    0.0000
   1382 C         152.1522  213.6759  150.5737 C.3      91        0    0.0000
   1383 C         151.8400  216.1997  150.0291 C.3      91        0    0.0000
   1384 C         152.8308  217.0694  149.2338 C.3      91        0    0.0000
   1385 C         152.4809  218.5588  149.1873 C.3      91        0    0.0000
   1386 H         154.2570  217.3877  150.8524 H        91        0    0.0000
   1387 H         155.0223  217.0719  149.2818 H        91        0    0.0000
   1388 H         154.3363  214.7567  149.3130 H        91        0    0.0000
   1389 H         154.8598  215.0349  150.9802 H        91        0    0.0000
   1390 H         152.6758  215.3349  151.7930 H        91        0    0.0000
   1391 H         151.1015  213.7168  150.2627 H        91        0    0.0000
   1392 H         152.6982  213.1691  149.7693 H        91        0    0.0000
   1393 H         151.3239  216.7882  150.7978 H        91        0    0.0000
   1394 H         151.0667  215.7928  149.3691 H        91        0    0.0000
   1395 H         152.8882  216.6742  148.2091 H        91        0    0.0000
   1396 H         153.3757  219.1507  148.9606 H        91        0    0.0000
   1397 H         151.7699  218.7387  148.3723 H        91        0    0.0000
   1398 C         151.8549  219.0661  150.5167 C.3      92        0    0.0000
   1399 C         151.4382  220.5435  150.4862 C.3      92        0    0.0000
   1400 H         152.6200  218.9441  151.2941 H        92        0    0.0000
   1401 H         151.0151  218.4205  150.7995 H        92        0    0.0000
   1402 H         152.3352  221.1463  150.2948 H        92        0    0.0000
   1403 H         150.7434  220.7451  149.6624 H        92        0    0.0000
   1404 C         150.8246  221.0603  151.8335 C.3      93        0    0.0000
   1405 C         151.3755  222.4191  152.2892 C.3      93        0    0.0000
   1406 H         151.0743  220.3168  152.6012 H        93        0    0.0000
   1407 H         149.7309  221.0782  151.7585 H        93        0    0.0000
   1408 H         152.4703  222.3826  152.2214 H        93        0    0.0000
   1409 H         151.0470  223.2262  151.6239 H        93        0    0.0000
   1410 C         147.5332  222.0175  154.6039 C.3      94        0    0.0000
   1411 C         148.6554  221.8559  153.5796 C.3      94        0    0.0000
   1412 C         149.9749  221.8372  154.3704 C.3      94        0    0.0000
   1413 C         151.0258  222.7828  153.7738 C.3      94        0    0.0000
   1414 C         149.5714  222.1798  155.8128 C.3      94        0    0.0000
   1415 C         148.1408  221.6460  155.9591 C.3      94        0    0.0000
   1416 C         148.0567  220.1321  156.2263 C.3      94        0    0.0000
   1417 H         147.2203  223.0693  154.6245 H        94        0    0.0000
   1418 H         146.6513  221.4230  154.3455 H        94        0    0.0000
   1419 H         148.6141  222.6609  152.8377 H        94        0    0.0000
   1420 H         148.5391  220.9108  153.0361 H        94        0    0.0000
   1421 H         150.3654  220.8099  154.3503 H        94        0    0.0000
   1422 H         151.9381  222.7704  154.3815 H        94        0    0.0000
   1423 H         150.6435  223.8104  153.7979 H        94        0    0.0000
   1424 H         150.2653  221.7554  156.5449 H        94        0    0.0000
   1425 H         149.5651  223.2679  155.9583 H        94        0    0.0000
   1426 H         147.6163  222.1840  156.7591 H        94        0    0.0000
   1427 H         147.9892  219.5665  155.2908 H        94        0    0.0000
   1428 H         147.1411  219.9155  156.7899 H        94        0    0.0000
   1429 C         149.6724  222.7135  156.0425 C.3      95        0    0.0000
   1430 C         150.6520  221.5420  156.1529 C.3      95        0    0.0000
   1431 C         150.2493  220.7520  157.4030 C.3      95        0    0.0000
   1432 C         149.2658  219.6179  157.0579 C.3      95        0    0.0000
   1433 C         149.6639  221.8490  158.3014 C.3      95        0    0.0000
   1434 C         148.8571  222.7320  157.3462 C.3      95        0    0.0000
   1435 C         148.6058  224.1319  157.9181 C.3      95        0    0.0000
   1436 H         150.2266  223.6452  155.8821 H        95        0    0.0000
   1437 H         149.0069  222.5796  155.1820 H        95        0    0.0000
   1438 H         151.6656  221.9403  156.2873 H        95        0    0.0000
   1439 H         150.6654  220.9331  155.2432 H        95        0    0.0000
   1440 H         151.1417  220.3187  157.8726 H        95        0    0.0000
   1441 H         148.8822  219.1785  157.9867 H        95        0    0.0000
   1442 H         149.7662  218.8099  156.5137 H        95        0    0.0000
   1443 H         150.4828  222.4251  158.7518 H        95        0    0.0000
   1444 H         149.0473  221.4630  159.1186 H        95        0    0.0000
   1445 H         147.8903  222.2448  157.1567 H        95        0    0.0000
   1446 H         148.2366  224.0624  158.9479 H        95        0    0.0000
   1447 H         147.8235  224.6293  157.3326 H        95        0    0.0000
   1448 C         150.5648  226.5915  161.2595 C.3      96        0    0.0000
   1449 C         149.8915  225.5117  160.4263 C.3      96        0    0.0000
   1450 C         149.9670  226.0627  158.9967 C.3      96        0    0.0000
   1451 C         149.8897  225.0098  157.8839 C.3      96        0    0.0000
   1452 C         151.2146  226.9694  158.9646 C.3      96        0    0.0000
   1453 C         151.7684  226.9860  160.4011 C.3      96        0    0.0000
   1454 C         152.3756  228.3215  160.8377 C.3      96        0    0.0000
   1455 H         149.8850  227.4403  161.4021 H        96        0    0.0000
   1456 H         150.8630  226.2219  162.2454 H        96        0    0.0000
   1457 H         150.4398  224.5698  160.5356 H        96        0    0.0000
   1458 H         148.8585  225.3362  160.7428 H        96        0    0.0000
   1459 H         149.0967  226.7218  158.8602 H        96        0    0.0000
   1460 H         149.9436  225.5148  156.9120 H        96        0    0.0000
   1461 H         150.7678  224.3564  157.9473 H        96        0    0.0000
   1462 H         150.9166  227.9750  158.6425 H        96        0    0.0000
   1463 H         151.9784  226.6243  158.2598 H        96        0    0.0000
   1464 H         152.5262  226.1936  160.4858 H        96        0    0.0000
   1465 H         151.7127  229.1484  160.5566 H        96        0    0.0000
   1466 H         152.4579  228.3420  161.9309 H        96        0    0.0000
   1467 C         155.9324  229.2602  163.2687 C.3      97        0    0.0000
   1468 C         154.5658  228.9807  162.6622 C.3      97        0    0.0000
   1469 C         154.7713  229.2650  161.1689 C.3      97        0    0.0000
   1470 C         153.7843  228.5643  160.2267 C.3      97        0    0.0000
   1471 C         156.2628  228.9848  160.8924 C.3      97        0    0.0000
   1472 C         156.8920  228.6357  162.2536 C.3      97        0    0.0000
   1473 C         158.3294  229.1280  162.4396 C.3      97        0    0.0000
   1474 H         156.0958  230.3414  163.3547 H        97        0    0.0000
   1475 H         156.0372  228.8175  164.2639 H        97        0    0.0000
   1476 H         154.2883  227.9378  162.8499 H        97        0    0.0000
   1477 H         153.7883  229.6171  163.0963 H        97        0    0.0000
   1478 H         154.6232  230.3456  161.0244 H        97        0    0.0000
   1479 H         153.6730  229.1660  159.3167 H        97        0    0.0000
   1480 H         154.2070  227.6013  159.9167 H        97        0    0.0000
   1481 H         156.7211  229.8841  160.4624 H        97        0    0.0000
   1482 H         156.4215  228.1738  160.1738 H        97        0    0.0000
   1483 H         156.8598  227.5433  162.3763 H        97        0    0.0000
   1484 H         158.7381  228.7533  163.3855 H        97        0    0.0000
   1485 H         158.9588  228.7183  161.6407 H        97        0    0.0000
   1486 C         161.8437  232.1269  161.6857 C.3      98        0    0.0000
   1487 C         160.6537  231.2542  161.3169 C.3      98        0    0.0000
   1488 C         159.8698  231.1716  162.6283 C.3      98        0    0.0000
   1489 C         158.4367  230.6786  162.4139 C.3      98        0    0.0000
   1490 C         159.9816  232.5922  163.2116 C.3      98        0    0.0000
   1491 C         161.2247  233.2281  162.5558 C.3      98        0    0.0000
   1492 C         162.1940  233.9238  163.5198 C.3      98        0    0.0000
   1493 H         162.3401  232.5361  160.8002 H        98        0    0.0000
   1494 H         162.5789  231.5298  162.2359 H        98        0    0.0000
   1495 H         160.0596  231.7349  160.5301 H        98        0    0.0000
   1496 H         160.9644  230.2683  160.9577 H        98        0    0.0000
   1497 H         160.3980  230.4815  163.3023 H        98        0    0.0000
   1498 H         157.7735  231.0992  163.1791 H        98        0    0.0000
   1499 H         158.0699  231.0408  161.4461 H        98        0    0.0000
   1500 H         159.0991  233.1942  162.9619 H        98        0    0.0000
   1501 H         160.0427  232.5576  164.3044 H        98        0    0.0000
   1502 H         160.8549  234.0073  161.8728 H        98        0    0.0000
   1503 H         161.6240  234.5755  164.1926 H        98        0    0.0000
   1504 H         162.8624  234.5749  162.9438 H        98        0    0.0000
   1505 C         165.6442  235.2794  165.8752 C.3      99        0    0.0000
   1506 C         165.2788  234.1916  164.8769 C.3      99        0    0.0000
   1507 C         163.9497  233.6447  165.4130 C.3      99        0    0.0000
   1508 C         163.0591  232.9526  164.3734 C.3      99        0    0.0000
   1509 C         163.2930  234.8157  166.1727 C.3      99        0    0.0000
   1510 C         164.3053  235.9750  166.1294 C.3      99        0    0.0000
   1511 C         164.3367  236.8448  167.3885 C.3      99        0    0.0000
   1512 H         166.0393  234.8328  166.7958 H        99        0    0.0000
   1513 H         166.3977  235.9653  165.4762 H        99        0    0.0000
   1514 H         165.1724  234.6311  163.8792 H        99        0    0.0000
   1515 H         166.0475  233.4145  164.8200 H        99        0    0.0000
   1516 H         164.1968  232.8816  166.1660 H        99        0    0.0000
   1517 H         163.6915  232.3620  163.6999 H        99        0    0.0000
   1518 H         162.3967  232.2437  164.8843 H        99        0    0.0000
   1519 H         163.0915  234.5031  167.2049 H        99        0    0.0000
   1520 H         162.3343  235.1233  165.7420 H        99        0    0.0000
   1521 H         164.0718  236.6019  165.2565 H        99        0    0.0000
   1522 H         165.0164  236.4107  168.1313 H        99        0    0.0000
   1523 H         164.7371  237.8338  167.1358 H        99        0    0.0000
   1524 C         162.9688  237.3923  171.6767 C.3     100        0    0.0000
   1525 C         163.8103  237.3015  170.4047 C.3     100        0    0.0000
   1526 C         162.9672  237.9150  169.2734 C.3     100        0    0.0000
   1527 C         162.9297  237.0238  168.0249 C.3     100        0    0.0000
   1528 C         161.5892  238.1663  169.9049 C.3     100        0    0.0000
   1529 C         161.8772  238.4264  171.3889 C.3     100        0    0.0000
   1530 C         162.3519  239.8580  171.6978 C.3     100        0    0.0000
   1531 H         162.5019  236.4168  171.8637 H       100        0    0.0000
   1532 H         163.5754  237.6339  172.5552 H       100        0    0.0000
   1533 H         164.0953  236.2621  170.2086 H       100        0    0.0000
   1534 H         164.7385  237.8730  170.5229 H       100        0    0.0000
   1535 H         163.4131  238.8840  169.0082 H       100        0    0.0000
   1536 H         162.2386  237.4382  167.2818 H       100        0    0.0000
   1537 H         162.5446  236.0340  168.2981 H       100        0    0.0000
   1538 H         161.0594  238.9914  169.4189 H       100        0    0.0000
   1539 H         160.9593  237.2719  169.8129 H       100        0    0.0000
   1540 H         160.9879  238.2024  171.9917 H       100        0    0.0000
   1541 H         161.5071  240.5153  171.9301 H       100        0    0.0000
   1542 H         162.8389  240.2765  170.8086 H       100        0    0.0000
   1543 C         165.8143  242.6219  172.5798 C.3     101        0    0.0000
   1544 C         164.5309  242.0076  172.0231 C.3     101        0    0.0000
   1545 C         163.8211  241.3234  173.2042 C.3     101        0    0.0000
   1546 C         163.3751  239.8943  172.8680 C.3     101        0    0.0000
   1547 C         164.8232  241.4096  174.3658 C.3     101        0    0.0000
   1548 C         165.6281  242.6877  174.0979 C.3     101        0    0.0000
   1549 C         164.9169  243.9830  174.5299 C.3     101        0    0.0000
   1550 H         166.6558  241.9567  172.3476 H       101        0    0.0000
   1551 H         166.0358  243.5934  172.1268 H       101        0    0.0000
   1552 H         164.7618  241.3159  171.2056 H       101        0    0.0000
   1553 H         163.8845  242.7906  171.6094 H       101        0    0.0000
   1554 H         162.9364  241.9237  173.4594 H       101        0    0.0000
   1555 H         162.9418  239.4125  173.7522 H       101        0    0.0000
   1556 H         164.2508  239.2998  172.5809 H       101        0    0.0000
   1557 H         164.3236  241.4125  175.3394 H       101        0    0.0000
   1558 H         165.5024  240.5473  174.3476 H       101        0    0.0000
   1559 H         166.6058  242.6296  174.5930 H       101        0    0.0000
   1560 H         163.8321  243.8416  174.5844 H       101        0    0.0000
   1561 H         165.0939  244.7603  173.7766 H       101        0    0.0000
   1562 C         168.6629  246.4534  176.1734 C.3     102        0    0.0000
   1563 C         167.1988  246.3389  175.7776 C.3     102        0    0.0000
   1564 C         166.9368  244.8340  175.8650 C.3     102        0    0.0000
   1565 C         165.4413  244.5094  175.8958 C.3     102        0    0.0000
   1566 C         167.7160  244.3992  177.1198 C.3     102        0    0.0000
   1567 C         168.7933  245.4788  177.3508 C.3     102        0    0.0000
   1568 C         170.2098  244.9504  177.6101 C.3     102        0    0.0000
   1569 H         168.9306  247.4760  176.4575 H       102        0    0.0000
   1570 H         169.2948  246.1649  175.3264 H       102        0    0.0000
   1571 H         166.5697  246.8921  176.4856 H       102        0    0.0000
   1572 H         167.0137  246.7336  174.7739 H       102        0    0.0000
   1573 H         167.3985  244.3528  174.9906 H       102        0    0.0000
   1574 H         165.2315  243.7660  176.6740 H       102        0    0.0000
   1575 H         164.8800  245.4124  176.1640 H       102        0    0.0000
   1576 H         167.0607  244.3552  177.9985 H       102        0    0.0000
   1577 H         168.1348  243.3961  176.9864 H       102        0    0.0000
   1578 H         168.4973  246.0284  178.2568 H       102        0    0.0000
   1579 H         170.6760  245.5489  178.4017 H       102        0    0.0000
   1580 H         170.8151  245.0975  176.7076 H       102        0    0.0000
   1581 C         167.4684  241.2000  179.2102 C.3     103        0    0.0000
   1582 C         168.9065  241.3719  178.7457 C.3     103        0    0.0000
   1583 C         168.9058  242.7545  178.0812 C.3     103        0    0.0000
   1584 C         170.2719  243.4487  178.0119 C.3     103        0    0.0000
   1585 C         167.7914  243.5552  178.7858 C.3     103        0    0.0000
   1586 C         167.1224  242.5804  179.7721 C.3     103        0    0.0000
   1587 C         165.6132  242.7739  179.9391 C.3     103        0    0.0000
   1588 H         166.8229  240.9452  178.3608 H       103        0    0.0000
   1589 H         167.3724  240.4111  179.9624 H       103        0    0.0000
   1590 H         169.5780  241.3293  179.6100 H       103        0    0.0000
   1591 H         169.2077  240.5835  178.0487 H       103        0    0.0000
   1592 H         168.5786  242.6105  177.0406 H       103        0    0.0000
   1593 H         170.7625  243.3670  178.9892 H       103        0    0.0000
   1594 H         170.9085  242.9160  177.2955 H       103        0    0.0000
   1595 H         167.0768  243.9106  178.0329 H       103        0    0.0000
   1596 H         168.1649  244.4407  179.3108 H       103        0    0.0000
   1597 H         167.6161  242.6882  180.7489 H       103        0    0.0000
   1598 H         165.1127  242.7014  178.9662 H       103        0    0.0000
   1599 H         165.2109  241.9653  180.5609 H       103        0    0.0000
   1600 H         165.3627  243.7286  180.4015 H       103        0    0.0000
   1601 H         109.6297  119.1639   62.1639 H         0        0    0.0000
@<TRIPOS>BOND
     1     1     2      1
     2     1     6      1
     3     1     8      1
     4     1     9      1
     5     2     3      1
     6     2    10      1
     7     2    11      1
     8     3     4      1
     9     3     5      1
    10     3    12      1
    11     4    13      1
    12     4    14      1
    13     4  1601      H
    14     5     6      1
    15     5    15      1
    16     5    16      1
    17     6     7      1
    18     6    17      1
    19     7    18      1
    20     7    19      1
    21     7    23      1
    22    20    21      1
    23    20    25      1
    24    20    27      1
    25    20    28      1
    26    21    22      1
    27    21    29      1
    28    21    30      1
    29    22    23      1
    30    22    24      1
    31    22    31      1
    32    23    32      1
    33    23    33      1
    34    24    25      1
    35    24    34      1
    36    24    35      1
    37    25    26      1
    38    25    36      1
    39    26    37      1
    40    26    38      1
    41    26    39      1
    42    39    40      1
    43    39    41      1
    44    39    42      1
    45    40    43      1
    46    40    44      1
    47    40    48      1
    48    45    46      1
    49    45    50      1
    50    45    52      1
    51    45    53      1
    52    46    47      1
    53    46    54      1
    54    46    55      1
    55    47    48      1
    56    47    49      1
    57    47    56      1
    58    48    57      1
    59    48    58      1
    60    49    50      1
    61    49    59      1
    62    49    60      1
    63    50    51      1
    64    50    61      1
    65    51    62      1
    66    51    63      1
    67    51    64      1
    68    64    65      1
    69    64    66      1
    70    64    67      1
    71    65    68      1
    72    65    69      1
    73    65    73      1
    74    70    71      1
    75    70    75      1
    76    70    77      1
    77    70    78      1
    78    71    72      1
    79    71    79      1
    80    71    80      1
    81    72    73      1
    82    72    74      1
    83    72    81      1
    84    73    82      1
    85    73    83      1
    86    74    75      1
    87    74    84      1
    88    74    85      1
    89    75    76      1
    90    75    86      1
    91    76    87      1
    92    76    88      1
    93    76    92      1
    94    89    90      1
    95    89    94      1
    96    89    96      1
    97    89    97      1
    98    90    91      1
    99    90    98      1
   100    90    99      1
   101    91    92      1
   102    91    93      1
   103    91   100      1
   104    92   101      1
   105    92   102      1
   106    93    94      1
   107    93   103      1
   108    93   104      1
   109    94    95      1
   110    94   105      1
   111    95   106      1
   112    95   107      1
   113    95   108      1
   114   108   109      1
   115   108   110      1
   116   108   111      1
   117   109   112      1
   118   109   113      1
   119   109   114      1
   120   114   115      1
   121   114   116      1
   122   114   117      1
   123   115   118      1
   124   115   119      1
   125   115   120      1
   126   120   121      1
   127   120   122      1
   128   120   123      1
   129   121   124      1
   130   121   125      1
   131   121   126      1
   132   126   127      1
   133   126   128      1
   134   126   129      1
   135   127   130      1
   136   127   131      1
   137   127   135      1
   138   132   133      1
   139   132   137      1
   140   132   139      1
   141   132   140      1
   142   133   134      1
   143   133   141      1
   144   133   142      1
   145   134   135      1
   146   134   136      1
   147   134   143      1
   148   135   144      1
   149   135   145      1
   150   136   137      1
   151   136   146      1
   152   136   147      1
   153   137   138      1
   154   137   148      1
   155   138   149      1
   156   138   150      1
   157   138   154      1
   158   151   152      1
   159   151   156      1
   160   151   158      1
   161   151   159      1
   162   152   153      1
   163   152   160      1
   164   152   161      1
   165   153   154      1
   166   153   155      1
   167   153   162      1
   168   154   163      1
   169   154   164      1
   170   155   156      1
   171   155   165      1
   172   155   166      1
   173   156   157      1
   174   156   167      1
   175   157   168      1
   176   157   169      1
   177   157   170      1
   178   170   171      1
   179   170   172      1
   180   170   173      1
   181   171   174      1
   182   171   175      1
   183   171   179      1
   184   176   177      1
   185   176   181      1
   186   176   183      1
   187   176   184      1
   188   177   178      1
   189   177   185      1
   190   177   186      1
   191   178   179      1
   192   178   180      1
   193   178   187      1
   194   179   188      1
   195   179   189      1
   196   180   181      1
   197   180   190      1
   198   180   191      1
   199   181   182      1
   200   181   192      1
   201   182   193      1
   202   182   194      1
   203   182   195      1
   204   195   196      1
   205   195   197      1
   206   195   198      1
   207   196   199      1
   208   196   200      1
   209   196   204      1
   210   201   202      1
   211   201   206      1
   212   201   208      1
   213   201   209      1
   214   202   203      1
   215   202   210      1
   216   202   211      1
   217   203   204      1
   218   203   205      1
   219   203   212      1
   220   204   213      1
   221   204   214      1
   222   205   206      1
   223   205   215      1
   224   205   216      1
   225   206   207      1
   226   206   217      1
   227   207   218      1
   228   207   219      1
   229   207   223      1
   230   220   221      1
   231   220   225      1
   232   220   227      1
   233   220   228      1
   234   221   222      1
   235   221   229      1
   236   221   230      1
   237   222   223      1
   238   222   224      1
   239   222   231      1
   240   223   232      1
   241   223   233      1
   242   224   225      1
   243   224   234      1
   244   224   235      1
   245   225   226      1
   246   225   236      1
   247   226   237      1
   248   226   238      1
   249   226   242      1
   250   239   240      1
   251   239   244      1
   252   239   246      1
   253   239   247      1
   254   240   241      1
   255   240   248      1
   256   240   249      1
   257   241   242      1
   258   241   243      1
   259   241   250      1
   260   242   251      1
   261   242   252      1
   262   243   244      1
   263   243   253      1
   264   243   254      1
   265   244   245      1
   266   244   255      1
   267   245   256      1
   268   245   257      1
   269   245   261      1
   270   258   259      1
   271   258   263      1
   272   258   265      1
   273   258   266      1
   274   259   260      1
   275   259   267      1
   276   259   268      1
   277   260   261      1
   278   260   262      1
   279   260   269      1
   280   261   270      1
   281   261   271      1
   282   262   263      1
   283   262   272      1
   284   262   273      1
   285   263   264      1
   286   263   274      1
   287   264   275      1
   288   264   276      1
   289   264   277      1
   290   277   278      1
   291   277   279      1
   292   277   280      1
   293   278   281      1
   294   278   282      1
   295   278   286      1
   296   283   284      1
   297   283   288      1
   298   283   290      1
   299   283   291      1
   300   284   285      1
   301   284   292      1
   302   284   293      1
   303   285   286      1
   304   285   287      1
   305   285   294      1
   306   286   295      1
   307   286   296      1
   308   287   288      1
   309   287   297      1
   310   287   298      1
   311   288   289      1
   312   288   299      1
   313   289   300      1
   314   289   301      1
   315   289   305      1
   316   302   303      1
   317   302   307      1
   318   302   309      1
   319   302   310      1
   320   303   304      1
   321   303   311      1
   322   303   312      1
   323   304   305      1
   324   304   306      1
   325   304   313      1
   326   305   314      1
   327   305   315      1
   328   306   307      1
   329   306   316      1
   330   306   317      1
   331   307   308      1
   332   307   318      1
   333   308   319      1
   334   308   320      1
   335   308   324      1
   336   321   322      1
   337   321   326      1
   338   321   328      1
   339   321   329      1
   340   322   323      1
   341   322   330      1
   342   322   331      1
   343   323   324      1
   344   323   325      1
   345   323   332      1
   346   324   333      1
   347   324   334      1
   348   325   326      1
   349   325   335      1
   350   325   336      1
   351   326   327      1
   352   326   337      1
   353   327   338      1
   354   327   339      1
   355   327   343      1
   356   340   341      1
   357   340   345      1
   358   340   347      1
   359   340   348      1
   360   341   342      1
   361   341   349      1
   362   341   350      1
   363   342   343      1
   364   342   344      1
   365   342   351      1
   366   343   352      1
   367   343   353      1
   368   344   345      1
   369   344   354      1
   370   344   355      1
   371   345   346      1
   372   345   356      1
   373   346   357      1
   374   346   358      1
   375   346   362      1
   376   359   360      1
   377   359   364      1
   378   359   366      1
   379   359   367      1
   380   360   361      1
   381   360   368      1
   382   360   369      1
   383   361   362      1
   384   361   363      1
   385   361   370      1
   386   362   371      1
   387   362   372      1
   388   363   364      1
   389   363   373      1
   390   363   374      1
   391   364   365      1
   392   364   375      1
   393   365   376      1
   394   365   377      1
   395   365   381      1
   396   378   379      1
   397   378   383      1
   398   378   385      1
   399   378   386      1
   400   379   380      1
   401   379   387      1
   402   379   388      1
   403   380   381      1
   404   380   382      1
   405   380   389      1
   406   381   390      1
   407   381   391      1
   408   382   383      1
   409   382   392      1
   410   382   393      1
   411   383   384      1
   412   383   394      1
   413   384   395      1
   414   384   396      1
   415   384   397      1
   416   397   398      1
   417   397   399      1
   418   397   400      1
   419   398   401      1
   420   398   402      1
   421   398   406      1
   422   403   404      1
   423   403   408      1
   424   403   410      1
   425   403   411      1
   426   404   405      1
   427   404   412      1
   428   404   413      1
   429   405   406      1
   430   405   407      1
   431   405   414      1
   432   406   415      1
   433   406   416      1
   434   407   408      1
   435   407   417      1
   436   407   418      1
   437   408   409      1
   438   408   419      1
   439   409   420      1
   440   409   421      1
   441   409   425      1
   442   422   423      1
   443   422   427      1
   444   422   429      1
   445   422   430      1
   446   423   424      1
   447   423   431      1
   448   423   432      1
   449   424   425      1
   450   424   426      1
   451   424   433      1
   452   425   434      1
   453   425   435      1
   454   426   427      1
   455   426   436      1
   456   426   437      1
   457   427   428      1
   458   427   438      1
   459   428   439      1
   460   428   440      1
   461   428   444      1
   462   441   442      1
   463   441   446      1
   464   441   448      1
   465   441   449      1
   466   442   443      1
   467   442   450      1
   468   442   451      1
   469   443   444      1
   470   443   445      1
   471   443   452      1
   472   444   453      1
   473   444   454      1
   474   445   446      1
   475   445   455      1
   476   445   456      1
   477   446   447      1
   478   446   457      1
   479   447   458      1
   480   447   459      1
   481   447   463      1
   482   460   461      1
   483   460   465      1
   484   460   467      1
   485   460   468      1
   486   461   462      1
   487   461   469      1
   488   461   470      1
   489   462   463      1
   490   462   464      1
   491   462   471      1
   492   463   472      1
   493   463   473      1
   494   464   465      1
   495   464   474      1
   496   464   475      1
   497   465   466      1
   498   465   476      1
   499   466   477      1
   500   466   478      1
   501   466   479      1
   502   479   480      1
   503   479   481      1
   504   479   482      1
   505   480   483      1
   506   480   484      1
   507   480   488      1
   508   485   486      1
   509   485   490      1
   510   485   492      1
   511   485   493      1
   512   486   487      1
   513   486   494      1
   514   486   495      1
   515   487   488      1
   516   487   489      1
   517   487   496      1
   518   488   497      1
   519   488   498      1
   520   489   490      1
   521   489   499      1
   522   489   500      1
   523   490   491      1
   524   490   501      1
   525   491   502      1
   526   491   503      1
   527   491   507      1
   528   504   505      1
   529   504   509      1
   530   504   511      1
   531   504   512      1
   532   505   506      1
   533   505   513      1
   534   505   514      1
   535   506   507      1
   536   506   508      1
   537   506   515      1
   538   507   516      1
   539   507   517      1
   540   508   509      1
   541   508   518      1
   542   508   519      1
   543   509   510      1
   544   509   520      1
   545   510   521      1
   546   510   522      1
   547   510   526      1
   548   523   524      1
   549   523   528      1
   550   523   530      1
   551   523   531      1
   552   524   525      1
   553   524   532      1
   554   524   533      1
   555   525   526      1
   556   525   527      1
   557   525   534      1
   558   526   535      1
   559   526   536      1
   560   527   528      1
   561   527   537      1
   562   527   538      1
   563   528   529      1
   564   528   539      1
   565   529   540      1
   566   529   541      1
   567   529   545      1
   568   542   543      1
   569   542   547      1
   570   542   549      1
   571   542   550      1
   572   543   544      1
   573   543   551      1
   574   543   552      1
   575   544   545      1
   576   544   546      1
   577   544   553      1
   578   545   554      1
   579   545   555      1
   580   546   547      1
   581   546   556      1
   582   546   557      1
   583   547   548      1
   584   547   558      1
   585   548   559      1
   586   548   560      1
   587   548   564      1
   588   561   562      1
   589   561   566      1
   590   561   568      1
   591   561   569      1
   592   562   563      1
   593   562   570      1
   594   562   571      1
   595   563   564      1
   596   563   565      1
   597   563   572      1
   598   564   573      1
   599   564   574      1
   600   565   566      1
   601   565   575      1
   602   565   576      1
   603   566   567      1
   604   566   577      1
   605   567   578      1
   606   567   579      1
   607   567   583      1
   608   580   581      1
   609   580   585      1
   610   580   587      1
   611   580   588      1
   612   581   582      1
   613   581   589      1
   614   581   590      1
   615   582   583      1
   616   582   584      1
   617   582   591      1
   618   583   592      1
   619   583   593      1
   620   584   585      1
   621   584   594      1
   622   584   595      1
   623   585   586      1
   624   585   596      1
   625   586   597      1
   626   586   598      1
   627   586   602      1
   628   599   600      1
   629   599   604      1
   630   599   606      1
   631   599   607      1
   632   600   601      1
   633   600   608      1
   634   600   609      1
   635   601   602      1
   636   601   603      1
   637   601   610      1
   638   602   611      1
   639   602   612      1
   640   603   604      1
   641   603   613      1
   642   603   614      1
   643   604   605      1
   644   604   615      1
   645   605   616      1
   646   605   617      1
   647   605   621      1
   648   618   619      1
   649   618   623      1
   650   618   625      1
   651   618   626      1
   652   619   620      1
   653   619   627      1
   654   619   628      1
   655   620   621      1
   656   620   622      1
   657   620   629      1
   658   621   630      1
   659   621   631      1
   660   622   623      1
   661   622   632      1
   662   622   633      1
   663   623   624      1
   664   623   634      1
   665   624   635      1
   666   624   636      1
   667   624   640      1
   668   637   638      1
   669   637   642      1
   670   637   644      1
   671   637   645      1
   672   638   639      1
   673   638   646      1
   674   638   647      1
   675   639   640      1
   676   639   641      1
   677   639   648      1
   678   640   649      1
   679   640   650      1
   680   641   642      1
   681   641   651      1
   682   641   652      1
   683   642   643      1
   684   642   653      1
   685   643   654      1
   686   643   655      1
   687   643   659      1
   688   656   657      1
   689   656   661      1
   690   656   663      1
   691   656   664      1
   692   657   658      1
   693   657   665      1
   694   657   666      1
   695   658   659      1
   696   658   660      1
   697   658   667      1
   698   659   668      1
   699   659   669      1
   700   660   661      1
   701   660   670      1
   702   660   671      1
   703   661   662      1
   704   661   672      1
   705   662   673      1
   706   662   674      1
   707   662   675      1
   708   675   676      1
   709   675   677      1
   710   675   678      1
   711   676   679      1
   712   676   680      1
   713   676   684      1
   714   681   682      1
   715   681   686      1
   716   681   688      1
   717   681   689      1
   718   682   683      1
   719   682   690      1
   720   682   691      1
   721   683   684      1
   722   683   685      1
   723   683   692      1
   724   684   693      1
   725   684   694      1
   726   685   686      1
   727   685   695      1
   728   685   696      1
   729   686   687      1
   730   686   697      1
   731   687   698      1
   732   687   699      1
   733   687   703      1
   734   700   701      1
   735   700   705      1
   736   700   707      1
   737   700   708      1
   738   701   702      1
   739   701   709      1
   740   701   710      1
   741   702   703      1
   742   702   704      1
   743   702   711      1
   744   703   712      1
   745   703   713      1
   746   704   705      1
   747   704   714      1
   748   704   715      1
   749   705   706      1
   750   705   716      1
   751   706   717      1
   752   706   718      1
   753   706   722      1
   754   719   720      1
   755   719   724      1
   756   719   726      1
   757   719   727      1
   758   720   721      1
   759   720   728      1
   760   720   729      1
   761   721   722      1
   762   721   723      1
   763   721   730      1
   764   722   731      1
   765   722   732      1
   766   723   724      1
   767   723   733      1
   768   723   734      1
   769   724   725      1
   770   724   735      1
   771   725   736      1
   772   725   737      1
   773   725   741      1
   774   738   739      1
   775   738   743      1
   776   738   745      1
   777   738   746      1
   778   739   740      1
   779   739   747      1
   780   739   748      1
   781   740   741      1
   782   740   742      1
   783   740   749      1
   784   741   750      1
   785   741   751      1
   786   742   743      1
   787   742   752      1
   788   742   753      1
   789   743   744      1
   790   743   754      1
   791   744   755      1
   792   744   756      1
   793   744   760      1
   794   757   758      1
   795   757   762      1
   796   757   764      1
   797   757   765      1
   798   758   759      1
   799   758   766      1
   800   758   767      1
   801   759   760      1
   802   759   761      1
   803   759   768      1
   804   760   769      1
   805   760   770      1
   806   761   762      1
   807   761   771      1
   808   761   772      1
   809   762   763      1
   810   762   773      1
   811   763   774      1
   812   763   775      1
   813   763   779      1
   814   776   777      1
   815   776   781      1
   816   776   783      1
   817   776   784      1
   818   777   778      1
   819   777   785      1
   820   777   786      1
   821   778   779      1
   822   778   780      1
   823   778   787      1
   824   779   788      1
   825   779   789      1
   826   780   781      1
   827   780   790      1
   828   780   791      1
   829   781   782      1
   830   781   792      1
   831   782   793      1
   832   782   794      1
   833   782   795      1
   834   795   796      1
   835   795   797      1
   836   795   798      1
   837   796   799      1
   838   796   800      1
   839   796   804      1
   840   801   802      1
   841   801   806      1
   842   801   808      1
   843   801   809      1
   844   802   803      1
   845   802   810      1
   846   802   811      1
   847   803   804      1
   848   803   805      1
   849   803   812      1
   850   804   813      1
   851   804   814      1
   852   805   806      1
   853   805   815      1
   854   805   816      1
   855   806   807      1
   856   806   817      1
   857   807   818      1
   858   807   819      1
   859   807   823      1
   860   820   821      1
   861   820   825      1
   862   820   827      1
   863   820   828      1
   864   821   822      1
   865   821   829      1
   866   821   830      1
   867   822   823      1
   868   822   824      1
   869   822   831      1
   870   823   832      1
   871   823   833      1
   872   824   825      1
   873   824   834      1
   874   824   835      1
   875   825   826      1
   876   825   836      1
   877   826   837      1
   878   826   838      1
   879   826   839      1
   880   839   840      1
   881   839   841      1
   882   839   842      1
   883   840   843      1
   884   840   844      1
   885   840   848      1
   886   845   846      1
   887   845   850      1
   888   845   852      1
   889   845   853      1
   890   846   847      1
   891   846   854      1
   892   846   855      1
   893   847   848      1
   894   847   849      1
   895   847   856      1
   896   848   857      1
   897   848   858      1
   898   849   850      1
   899   849   859      1
   900   849   860      1
   901   850   851      1
   902   850   861      1
   903   851   862      1
   904   851   863      1
   905   851   867      1
   906   864   865      1
   907   864   869      1
   908   864   871      1
   909   864   872      1
   910   865   866      1
   911   865   873      1
   912   865   874      1
   913   866   867      1
   914   866   868      1
   915   866   875      1
   916   867   876      1
   917   867   877      1
   918   868   869      1
   919   868   878      1
   920   868   879      1
   921   869   870      1
   922   869   880      1
   923   870   881      1
   924   870   882      1
   925   870   883      1
   926   883   884      1
   927   883   885      1
   928   883   886      1
   929   884   887      1
   930   884   888      1
   931   884   892      1
   932   889   890      1
   933   889   894      1
   934   889   896      1
   935   889   897      1
   936   890   891      1
   937   890   898      1
   938   890   899      1
   939   891   892      1
   940   891   893      1
   941   891   900      1
   942   892   901      1
   943   892   902      1
   944   893   894      1
   945   893   903      1
   946   893   904      1
   947   894   895      1
   948   894   905      1
   949   895   906      1
   950   895   907      1
   951   895   908      1
   952   908   909      1
   953   908   910      1
   954   908   911      1
   955   909   912      1
   956   909   913      1
   957   909   917      1
   958   914   915      1
   959   914   919      1
   960   914   921      1
   961   914   922      1
   962   915   916      1
   963   915   923      1
   964   915   924      1
   965   916   917      1
   966   916   918      1
   967   916   925      1
   968   917   926      1
   969   917   927      1
   970   918   919      1
   971   918   928      1
   972   918   929      1
   973   919   920      1
   974   919   930      1
   975   920   931      1
   976   920   932      1
   977   920   936      1
   978   933   934      1
   979   933   938      1
   980   933   940      1
   981   933   941      1
   982   934   935      1
   983   934   942      1
   984   934   943      1
   985   935   936      1
   986   935   937      1
   987   935   944      1
   988   936   945      1
   989   936   946      1
   990   937   938      1
   991   937   947      1
   992   937   948      1
   993   938   939      1
   994   938   949      1
   995   939   950      1
   996   939   951      1
   997   939   955      1
   998   952   953      1
   999   952   957      1
  1000   952   959      1
  1001   952   960      1
  1002   953   954      1
  1003   953   961      1
  1004   953   962      1
  1005   954   955      1
  1006   954   956      1
  1007   954   963      1
  1008   955   964      1
  1009   955   965      1
  1010   956   957      1
  1011   956   966      1
  1012   956   967      1
  1013   957   958      1
  1014   957   968      1
  1015   958   969      1
  1016   958   970      1
  1017   958   971      1
  1018   971   972      1
  1019   971   973      1
  1020   971   974      1
  1021   972   975      1
  1022   972   976      1
  1023   972   980      1
  1024   977   978      1
  1025   977   982      1
  1026   977   984      1
  1027   977   985      1
  1028   978   979      1
  1029   978   986      1
  1030   978   987      1
  1031   979   980      1
  1032   979   981      1
  1033   979   988      1
  1034   980   989      1
  1035   980   990      1
  1036   981   982      1
  1037   981   991      1
  1038   981   992      1
  1039   982   983      1
  1040   982   993      1
  1041   983   994      1
  1042   983   995      1
  1043   983   999      1
  1044   996   997      1
  1045   996  1001      1
  1046   996  1003      1
  1047   996  1004      1
  1048   997   998      1
  1049   997  1005      1
  1050   997  1006      1
  1051   998   999      1
  1052   998  1000      1
  1053   998  1007      1
  1054   999  1008      1
  1055   999  1009      1
  1056  1000  1001      1
  1057  1000  1010      1
  1058  1000  1011      1
  1059  1001  1002      1
  1060  1001  1012      1
  1061  1002  1013      1
  1062  1002  1014      1
  1063  1002  1015      1
  1064  1015  1016      1
  1065  1015  1017      1
  1066  1015  1018      1
  1067  1016  1019      1
  1068  1016  1020      1
  1069  1016  1024      1
  1070  1021  1022      1
  1071  1021  1026      1
  1072  1021  1028      1
  1073  1021  1029      1
  1074  1022  1023      1
  1075  1022  1030      1
  1076  1022  1031      1
  1077  1023  1024      1
  1078  1023  1025      1
  1079  1023  1032      1
  1080  1024  1033      1
  1081  1024  1034      1
  1082  1025  1026      1
  1083  1025  1035      1
  1084  1025  1036      1
  1085  1026  1027      1
  1086  1026  1037      1
  1087  1027  1038      1
  1088  1027  1039      1
  1089  1027  1043      1
  1090  1040  1041      1
  1091  1040  1045      1
  1092  1040  1047      1
  1093  1040  1048      1
  1094  1041  1042      1
  1095  1041  1049      1
  1096  1041  1050      1
  1097  1042  1043      1
  1098  1042  1044      1
  1099  1042  1051      1
  1100  1043  1052      1
  1101  1043  1053      1
  1102  1044  1045      1
  1103  1044  1054      1
  1104  1044  1055      1
  1105  1045  1046      1
  1106  1045  1056      1
  1107  1046  1057      1
  1108  1046  1058      1
  1109  1046  1059      1
  1110  1059  1060      1
  1111  1059  1061      1
  1112  1059  1062      1
  1113  1060  1063      1
  1114  1060  1064      1
  1115  1060  1068      1
  1116  1065  1066      1
  1117  1065  1070      1
  1118  1065  1072      1
  1119  1065  1073      1
  1120  1066  1067      1
  1121  1066  1074      1
  1122  1066  1075      1
  1123  1067  1068      1
  1124  1067  1069      1
  1125  1067  1076      1
  1126  1068  1077      1
  1127  1068  1078      1
  1128  1069  1070      1
  1129  1069  1079      1
  1130  1069  1080      1
  1131  1070  1071      1
  1132  1070  1081      1
  1133  1071  1082      1
  1134  1071  1083      1
  1135  1071  1087      1
  1136  1084  1085      1
  1137  1084  1089      1
  1138  1084  1091      1
  1139  1084  1092      1
  1140  1085  1086      1
  1141  1085  1093      1
  1142  1085  1094      1
  1143  1086  1087      1
  1144  1086  1088      1
  1145  1086  1095      1
  1146  1087  1096      1
  1147  1087  1097      1
  1148  1088  1089      1
  1149  1088  1098      1
  1150  1088  1099      1
  1151  1089  1090      1
  1152  1089  1100      1
  1153  1090  1101      1
  1154  1090  1102      1
  1155  1090  1103      1
  1156  1103  1104      1
  1157  1103  1105      1
  1158  1103  1106      1
  1159  1104  1107      1
  1160  1104  1108      1
  1161  1104  1109      1
  1162  1109  1110      1
  1163  1109  1111      1
  1164  1109  1112      1
  1165  1110  1113      1
  1166  1110  1114      1
  1167  1110  1118      1
  1168  1115  1116      1
  1169  1115  1120      1
  1170  1115  1122      1
  1171  1115  1123      1
  1172  1116  1117      1
  1173  1116  1124      1
  1174  1116  1125      1
  1175  1117  1118      1
  1176  1117  1119      1
  1177  1117  1126      1
  1178  1118  1127      1
  1179  1118  1128      1
  1180  1119  1120      1
  1181  1119  1129      1
  1182  1119  1130      1
  1183  1120  1121      1
  1184  1120  1131      1
  1185  1121  1132      1
  1186  1121  1133      1
  1187  1121  1137      1
  1188  1134  1135      1
  1189  1134  1139      1
  1190  1134  1141      1
  1191  1134  1142      1
  1192  1135  1136      1
  1193  1135  1143      1
  1194  1135  1144      1
  1195  1136  1137      1
  1196  1136  1138      1
  1197  1136  1145      1
  1198  1137  1146      1
  1199  1137  1147      1
  1200  1138  1139      1
  1201  1138  1148      1
  1202  1138  1149      1
  1203  1139  1140      1
  1204  1139  1150      1
  1205  1140  1151      1
  1206  1140  1152      1
  1207  1140  1153      1
  1208  1153  1154      1
  1209  1153  1155      1
  1210  1153  1156      1
  1211  1154  1157      1
  1212  1154  1158      1
  1213  1154  1162      1
  1214  1159  1160      1
  1215  1159  1164      1
  1216  1159  1166      1
  1217  1159  1167      1
  1218  1160  1161      1
  1219  1160  1168      1
  1220  1160  1169      1
  1221  1161  1162      1
  1222  1161  1163      1
  1223  1161  1170      1
  1224  1162  1171      1
  1225  1162  1172      1
  1226  1163  1164      1
  1227  1163  1173      1
  1228  1163  1174      1
  1229  1164  1165      1
  1230  1164  1175      1
  1231  1165  1176      1
  1232  1165  1177      1
  1233  1165  1181      1
  1234  1178  1179      1
  1235  1178  1183      1
  1236  1178  1185      1
  1237  1178  1186      1
  1238  1179  1180      1
  1239  1179  1187      1
  1240  1179  1188      1
  1241  1180  1181      1
  1242  1180  1182      1
  1243  1180  1189      1
  1244  1181  1190      1
  1245  1181  1191      1
  1246  1182  1183      1
  1247  1182  1192      1
  1248  1182  1193      1
  1249  1183  1184      1
  1250  1183  1194      1
  1251  1184  1195      1
  1252  1184  1196      1
  1253  1184  1200      1
  1254  1197  1198      1
  1255  1197  1202      1
  1256  1197  1204      1
  1257  1197  1205      1
  1258  1198  1199      1
  1259  1198  1206      1
  1260  1198  1207      1
  1261  1199  1200      1
  1262  1199  1201      1
  1263  1199  1208      1
  1264  1200  1209      1
  1265  1200  1210      1
  1266  1201  1202      1
  1267  1201  1211      1
  1268  1201  1212      1
  1269  1202  1203      1
  1270  1202  1213      1
  1271  1203  1214      1
  1272  1203  1215      1
  1273  1203  1219      1
  1274  1216  1217      1
  1275  1216  1221      1
  1276  1216  1223      1
  1277  1216  1224      1
  1278  1217  1218      1
  1279  1217  1225      1
  1280  1217  1226      1
  1281  1218  1219      1
  1282  1218  1220      1
  1283  1218  1227      1
  1284  1219  1228      1
  1285  1219  1229      1
  1286  1220  1221      1
  1287  1220  1230      1
  1288  1220  1231      1
  1289  1221  1222      1
  1290  1221  1232      1
  1291  1222  1233      1
  1292  1222  1234      1
  1293  1222  1235      1
  1294  1235  1236      1
  1295  1235  1237      1
  1296  1235  1238      1
  1297  1236  1239      1
  1298  1236  1240      1
  1299  1236  1244      1
  1300  1241  1242      1
  1301  1241  1246      1
  1302  1241  1248      1
  1303  1241  1249      1
  1304  1242  1243      1
  1305  1242  1250      1
  1306  1242  1251      1
  1307  1243  1244      1
  1308  1243  1245      1
  1309  1243  1252      1
  1310  1244  1253      1
  1311  1244  1254      1
  1312  1245  1246      1
  1313  1245  1255      1
  1314  1245  1256      1
  1315  1246  1247      1
  1316  1246  1257      1
  1317  1247  1258      1
  1318  1247  1259      1
  1319  1247  1260      1
  1320  1260  1261      1
  1321  1260  1262      1
  1322  1260  1263      1
  1323  1261  1264      1
  1324  1261  1265      1
  1325  1261  1269      1
  1326  1266  1267      1
  1327  1266  1271      1
  1328  1266  1273      1
  1329  1266  1274      1
  1330  1267  1268      1
  1331  1267  1275      1
  1332  1267  1276      1
  1333  1268  1269      1
  1334  1268  1270      1
  1335  1268  1277      1
  1336  1269  1278      1
  1337  1269  1279      1
  1338  1270  1271      1
  1339  1270  1280      1
  1340  1270  1281      1
  1341  1271  1272      1
  1342  1271  1282      1
  1343  1272  1283      1
  1344  1272  1284      1
  1345  1272  1288      1
  1346  1285  1286      1
  1347  1285  1290      1
  1348  1285  1292      1
  1349  1285  1293      1
  1350  1286  1287      1
  1351  1286  1294      1
  1352  1286  1295      1
  1353  1287  1288      1
  1354  1287  1289      1
  1355  1287  1296      1
  1356  1288  1297      1
  1357  1288  1298      1
  1358  1289  1290      1
  1359  1289  1299      1
  1360  1289  1300      1
  1361  1290  1291      1
  1362  1290  1301      1
  1363  1291  1302      1
  1364  1291  1303      1
  1365  1291  1307      1
  1366  1304  1305      1
  1367  1304  1309      1
  1368  1304  1311      1
  1369  1304  1312      1
  1370  1305  1306      1
  1371  1305  1313      1
  1372  1305  1314      1
  1373  1306  1307      1
  1374  1306  1308      1
  1375  1306  1315      1
  1376  1307  1316      1
  1377  1307  1317      1
  1378  1308  1309      1
  1379  1308  1318      1
  1380  1308  1319      1
  1381  1309  1310      1
  1382  1309  1320      1
  1383  1310  1321      1
  1384  1310  1322      1
  1385  1310  1326      1
  1386  1323  1324      1
  1387  1323  1328      1
  1388  1323  1330      1
  1389  1323  1331      1
  1390  1324  1325      1
  1391  1324  1332      1
  1392  1324  1333      1
  1393  1325  1326      1
  1394  1325  1327      1
  1395  1325  1334      1
  1396  1326  1335      1
  1397  1326  1336      1
  1398  1327  1328      1
  1399  1327  1337      1
  1400  1327  1338      1
  1401  1328  1329      1
  1402  1328  1339      1
  1403  1329  1340      1
  1404  1329  1341      1
  1405  1329  1342      1
  1406  1342  1343      1
  1407  1342  1344      1
  1408  1342  1345      1
  1409  1343  1346      1
  1410  1343  1347      1
  1411  1343  1348      1
  1412  1348  1349      1
  1413  1348  1350      1
  1414  1348  1351      1
  1415  1349  1352      1
  1416  1349  1353      1
  1417  1349  1357      1
  1418  1354  1355      1
  1419  1354  1359      1
  1420  1354  1361      1
  1421  1354  1362      1
  1422  1355  1356      1
  1423  1355  1363      1
  1424  1355  1364      1
  1425  1356  1357      1
  1426  1356  1358      1
  1427  1356  1365      1
  1428  1357  1366      1
  1429  1357  1367      1
  1430  1358  1359      1
  1431  1358  1368      1
  1432  1358  1369      1
  1433  1359  1360      1
  1434  1359  1370      1
  1435  1360  1371      1
  1436  1360  1372      1
  1437  1360  1373      1
  1438  1373  1374      1
  1439  1373  1375      1
  1440  1373  1376      1
  1441  1374  1377      1
  1442  1374  1378      1
  1443  1374  1382      1
  1444  1379  1380      1
  1445  1379  1384      1
  1446  1379  1386      1
  1447  1379  1387      1
  1448  1380  1381      1
  1449  1380  1388      1
  1450  1380  1389      1
  1451  1381  1382      1
  1452  1381  1383      1
  1453  1381  1390      1
  1454  1382  1391      1
  1455  1382  1392      1
  1456  1383  1384      1
  1457  1383  1393      1
  1458  1383  1394      1
  1459  1384  1385      1
  1460  1384  1395      1
  1461  1385  1396      1
  1462  1385  1397      1
  1463  1385  1398      1
  1464  1398  1399      1
  1465  1398  1400      1
  1466  1398  1401      1
  1467  1399  1402      1
  1468  1399  1403      1
  1469  1399  1404      1
  1470  1404  1405      1
  1471  1404  1406      1
  1472  1404  1407      1
  1473  1405  1408      1
  1474  1405  1409      1
  1475  1405  1413      1
  1476  1410  1411      1
  1477  1410  1415      1
  1478  1410  1417      1
  1479  1410  1418      1
  1480  1411  1412      1
  1481  1411  1419      1
  1482  1411  1420      1
  1483  1412  1413      1
  1484  1412  1414      1
  1485  1412  1421      1
  1486  1413  1422      1
  1487  1413  1423      1
  1488  1414  1415      1
  1489  1414  1424      1
  1490  1414  1425      1
  1491  1415  1416      1
  1492  1415  1426      1
  1493  1416  1427      1
  1494  1416  1428      1
  1495  1416  1432      1
  1496  1429  1430      1
  1497  1429  1434      1
  1498  1429  1436      1
  1499  1429  1437      1
  1500  1430  1431      1
  1501  1430  1438      1
  1502  1430  1439      1
  1503  1431  1432      1
  1504  1431  1433      1
  1505  1431  1440      1
  1506  1432  1441      1
  1507  1432  1442      1
  1508  1433  1434      1
  1509  1433  1443      1
  1510  1433  1444      1
  1511  1434  1435      1
  1512  1434  1445      1
  1513  1435  1446      1
  1514  1435  1447      1
  1515  1435  1451      1
  1516  1448  1449      1
  1517  1448  1453      1
  1518  1448  1455      1
  1519  1448  1456      1
  1520  1449  1450      1
  1521  1449  1457      1
  1522  1449  1458      1
  1523  1450  1451      1
  1524  1450  1452      1
  1525  1450  1459      1
  1526  1451  1460      1
  1527  1451  1461      1
  1528  1452  1453      1
  1529  1452  1462      1
  1530  1452  1463      1
  1531  1453  1454      1
  1532  1453  1464      1
  1533  1454  1465      1
  1534  1454  1466      1
  1535  1454  1470      1
  1536  1467  1468      1
  1537  1467  1472      1
  1538  1467  1474      1
  1539  1467  1475      1
  1540  1468  1469      1
  1541  1468  1476      1
  1542  1468  1477      1
  1543  1469  1470      1
  1544  1469  1471      1
  1545  1469  1478      1
  1546  1470  1479      1
  1547  1470  1480      1
  1548  1471  1472      1
  1549  1471  1481      1
  1550  1471  1482      1
  1551  1472  1473      1
  1552  1472  1483      1
  1553  1473  1484      1
  1554  1473  1485      1
  1555  1473  1489      1
  1556  1486  1487      1
  1557  1486  1491      1
  1558  1486  1493      1
  1559  1486  1494      1
  1560  1487  1488      1
  1561  1487  1495      1
  1562  1487  1496      1
  1563  1488  1489      1
  1564  1488  1490      1
  1565  1488  1497      1
  1566  1489  1498      1
  1567  1489  1499      1
  1568  1490  1491      1
  1569  1490  1500      1
  1570  1490  1501      1
  1571  1491  1492      1
  1572  1491  1502      1
  1573  1492  1503      1
  1574  1492  1504      1
  1575  1492  1508      1
  1576  1505  1506      1
  1577  1505  1510      1
  1578  1505  1512      1
  1579  1505  1513      1
  1580  1506  1507      1
  1581  1506  1514      1
  1582  1506  1515      1
  1583  1507  1508      1
  1584  1507  1509      1
  1585  1507  1516      1
  1586  1508  1517      1
  1587  1508  1518      1
  1588  1509  1510      1
  1589  1509  1519      1
  1590  1509  1520      1
  1591  1510  1511      1
  1592  1510  1521      1
  1593  1511  1522      1
  1594  1511  1523      1
  1595  1511  1527      1
  1596  1524  1525      1
  1597  1524  1529      1
  1598  1524  1531      1
  1599  1524  1532      1
  1600  1525  1526      1
  1601  1525  1533      1
  1602  1525  1534      1
  1603  1526  1527      1
  1604  1526  1528      1
  1605  1526  1535      1
  1606  1527  1536      1
  1607  1527  1537      1
  1608  1528  1529      1
  1609  1528  1538      1
  1610  1528  1539      1
  1611  1529  1530      1
  1612  1529  1540      1
  1613  1530  1541      1
  1614  1530  1542      1
  1615  1530  1546      1
  1616  1543  1544      1
  1617  1543  1548      1
  1618  1543  1550      1
  1619  1543  1551      1
  1620  1544  1545      1
  1621  1544  1552      1
  1622  1544  1553      1
  1623  1545  1546      1
  1624  1545  1547      1
  1625  1545  1554      1
  1626  1546  1555      1
  1627  1546  1556      1
  1628  1547  1548      1
  1629  1547  1557      1
  1630  1547  1558      1
  1631  1548  1549      1
  1632  1548  1559      1
  1633  1549  1560      1
  1634  1549  1561      1
  1635  1549  1565      1
  1636  1562  1563      1
  1637  1562  1567      1
  1638  1562  1569      1
  1639  1562  1570      1
  1640  1563  1564      1
  1641  1563  1571      1
  1642  1563  1572      1
  1643  1564  1565      1
  1644  1564  1566      1
  1645  1564  1573      1
  1646  1565  1574      1
  1647  1565  1575      1
  1648  1566  1567      1
  1649  1566  1576      1
  1650  1566  1577      1
  1651  1567  1568      1
  1652  1567  1578      1
  1653  1568  1579      1
  1654  1568  1580      1
  1655  1568  1584      1
  1656  1581  1582      1
  1657  1581  1586      1
  1658  1581  1588      1
  1659  1581  1589      1
  1660  1582  1583      1
  1661  1582  1590      1
  1662  1582  1591      1
  1663  1583  1584      1
  1664  1583  1585      1
  1665  1583  1592      1
  1666  1584  1593      1
  1667  1584  1594      1
  1668  1585  1586      1
  1669  1585  1595      1
  1670  1585  1596      1
  1671  1586  1587      1
  1672  1586  1597      1
  1673  1587  1598      1
  1674  1587  1599      1
  1675  1587  1600      H
