###
### Created by PolyChef-cpp17 on Wed Feb 26 21:14:13 2025
###

@<TRIPOS>MOLECULE
NO_INFO
1620 1695 1 0 0
SMALL
USER_CHARGES


@<TRIPOS>ATOM
      1 C         242.1690  171.5442  114.1154 C.3       0        0    0.0000
      2 C         242.1933  170.5497  112.9631 C.3       0        0    0.0000
      3 C         240.7092  170.3916  112.6168 C.3       0        0    0.0000
      4 C         240.3591  169.1656  111.7681 C.3       0        0    0.0000
      5 C         239.9646  170.5034  113.9616 C.3       0        0    0.0000
      6 C         240.9956  171.0507  114.9681 C.3       0        0    0.0000
      7 C         240.4537  172.0581  115.9867 C.3       0        0    0.0000
      8 H         243.1105  171.5465  114.6733 H         0        0    0.0000
      9 H         242.0006  172.5551  113.7281 H         0        0    0.0000
     10 H         242.7763  170.9212  112.1146 H         0        0    0.0000
     11 H         242.6413  169.6073  113.2971 H         0        0    0.0000
     12 H         240.4243  171.2738  112.0238 H         0        0    0.0000
     13 H         240.2492  168.2947  112.4252 H         0        0    0.0000
     14 H         239.3845  169.3257  111.2919 H         0        0    0.0000
     15 H         239.5812  169.5409  114.3173 H         0        0    0.0000
     16 H         239.0944  171.1583  113.8449 H         0        0    0.0000
     17 H         241.3616  170.1884  115.5458 H         0        0    0.0000
     18 H         241.0434  171.9876  116.9085 H         0        0    0.0000
     19 H         240.5969  173.0732  115.5980 H         0        0    0.0000
     20 C         237.2339  169.0987  118.1231 C.3       1        0    0.0000
     21 C         238.5110  169.9323  117.9917 C.3       1        0    0.0000
     22 C         238.5921  170.3845  116.5227 C.3       1        0    0.0000
     23 C         238.9482  171.8650  116.3396 C.3       1        0    0.0000
     24 C         237.2180  170.0387  115.9401 C.3       1        0    0.0000
     25 C         236.7863  168.7759  116.6934 C.3       1        0    0.0000
     26 C         237.4410  167.5015  116.1272 C.3       1        0    0.0000
     27 H         237.3875  168.2139  118.7482 H         1        0    0.0000
     28 H         236.4632  169.7081  118.6123 H         1        0    0.0000
     29 H         238.4844  170.7720  118.6948 H         1        0    0.0000
     30 H         239.3894  169.3267  118.2436 H         1        0    0.0000
     31 H         239.3445  169.7663  116.0125 H         1        0    0.0000
     32 H         238.3437  172.2862  115.5275 H         1        0    0.0000
     33 H         238.7037  172.4324  117.2449 H         1        0    0.0000
     34 H         237.2569  169.8945  114.8555 H         1        0    0.0000
     35 H         236.5032  170.8471  116.1416 H         1        0    0.0000
     36 H         235.6944  168.6761  116.6490 H         1        0    0.0000
     37 H         237.1253  166.6131  116.6852 H         1        0    0.0000
     38 H         238.5300  167.5739  116.2332 H         1        0    0.0000
     39 C         237.1133  167.3052  114.6186 C.3       2        0    0.0000
     40 C         236.5195  165.9296  114.2830 C.3       2        0    0.0000
     41 H         236.3720  168.0699  114.3533 H         2        0    0.0000
     42 H         238.0060  167.5119  114.0167 H         2        0    0.0000
     43 H         237.3045  165.2075  114.0293 H         2        0    0.0000
     44 H         236.0192  165.5464  115.1815 H         2        0    0.0000
     45 C         233.8999  168.7191  115.0899 C.3       3        0    0.0000
     46 C         234.1591  167.2133  114.9990 C.3       3        0    0.0000
     47 C         234.2631  166.8742  113.5012 C.3       3        0    0.0000
     48 C         235.4425  165.9613  113.1439 C.3       3        0    0.0000
     49 C         234.3485  168.2368  112.8061 C.3       3        0    0.0000
     50 C         233.5026  169.1693  113.6798 C.3       3        0    0.0000
     51 C         231.9941  169.0272  113.4015 C.3       3        0    0.0000
     52 H         233.1563  168.9589  115.8559 H         3        0    0.0000
     53 H         234.8322  169.2213  115.3784 H         3        0    0.0000
     54 H         235.0653  166.9546  115.5579 H         3        0    0.0000
     55 H         233.3302  166.6556  115.4502 H         3        0    0.0000
     56 H         233.3255  166.3911  113.1911 H         3        0    0.0000
     57 H         235.0759  164.9405  112.9831 H         3        0    0.0000
     58 H         235.9056  166.2841  112.2043 H         3        0    0.0000
     59 H         233.9982  168.1912  111.7699 H         3        0    0.0000
     60 H         235.3867  168.5929  112.7898 H         3        0    0.0000
     61 H         233.8086  170.2096  113.5113 H         3        0    0.0000
     62 H         231.4009  169.3304  114.2713 H         3        0    0.0000
     63 H         231.7577  167.9745  113.2060 H         3        0    0.0000
     64 C         231.5544  169.8603  112.1627 C.3       4        0    0.0000
     65 C         230.1145  169.5860  111.7057 C.3       4        0    0.0000
     66 H         231.6248  170.9171  112.4505 H         4        0    0.0000
     67 H         232.2681  169.7101  111.3442 H         4        0    0.0000
     68 H         229.5640  170.5195  111.5399 H         4        0    0.0000
     69 H         230.1569  169.0706  110.7376 H         4        0    0.0000
     70 C         226.1745  169.5655  113.0871 C.3       5        0    0.0000
     71 C         226.8486  168.1911  113.1205 C.3       5        0    0.0000
     72 C         227.9589  168.2233  112.0645 C.3       5        0    0.0000
     73 C         229.3034  168.6596  112.6766 C.3       5        0    0.0000
     74 C         227.3873  169.1978  111.0269 C.3       5        0    0.0000
     75 C         226.7384  170.3045  111.8621 C.3       5        0    0.0000
     76 C         225.6981  171.1014  111.0668 C.3       5        0    0.0000
     77 H         225.0866  169.4428  113.0377 H         5        0    0.0000
     78 H         226.3966  170.1260  114.0023 H         5        0    0.0000
     79 H         226.1094  167.4281  112.8455 H         5        0    0.0000
     80 H         227.2121  167.9384  114.1217 H         5        0    0.0000
     81 H         228.0772  167.2273  111.6188 H         5        0    0.0000
     82 H         229.9086  167.7698  112.8883 H         5        0    0.0000
     83 H         229.1567  169.1723  113.6332 H         5        0    0.0000
     84 H         226.6286  168.6823  110.4236 H         5        0    0.0000
     85 H         228.1390  169.5947  110.3381 H         5        0    0.0000
     86 H         227.5277  170.9888  112.2039 H         5        0    0.0000
     87 H         226.1904  171.7184  110.3062 H         5        0    0.0000
     88 H         225.1718  171.7873  111.7410 H         5        0    0.0000
     89 C         222.3338  171.1721  107.5851 C.3       6        0    0.0000
     90 C         223.7302  171.1196  108.2104 C.3       6        0    0.0000
     91 C         223.5196  170.9565  109.7214 C.3       6        0    0.0000
     92 C         224.6537  170.1710  110.3857 C.3       6        0    0.0000
     93 C         222.1430  170.2895  109.8111 C.3       6        0    0.0000
     94 C         221.3376  171.0386  108.7443 C.3       6        0    0.0000
     95 C         220.0403  170.3446  108.3199 C.3       6        0    0.0000
     96 H         222.1756  172.1071  107.0370 H         6        0    0.0000
     97 H         222.2248  170.3515  106.8658 H         6        0    0.0000
     98 H         224.3021  172.0272  107.9892 H         6        0    0.0000
     99 H         224.2872  170.2740  107.7893 H         6        0    0.0000
    100 H         223.4533  171.9592  110.1683 H         6        0    0.0000
    101 H         225.1669  169.5661  109.6286 H         6        0    0.0000
    102 H         224.2489  169.4724  111.1273 H         6        0    0.0000
    103 H         221.7011  170.3960  110.8069 H         6        0    0.0000
    104 H         222.2085  169.2200  109.5750 H         6        0    0.0000
    105 H         221.1114  172.0473  109.1195 H         6        0    0.0000
    106 H         220.0832  169.2766  108.5635 H         6        0    0.0000
    107 H         219.9308  170.4164  107.2312 H         6        0    0.0000
    108 C         218.7870  170.9767  108.9852 C.3       7        0    0.0000
    109 C         217.6267  171.2325  108.0127 C.3       7        0    0.0000
    110 H         218.4417  170.2674  109.7482 H         7        0    0.0000
    111 H         219.0725  171.8929  109.5152 H         7        0    0.0000
    112 H         217.9766  171.2668  106.9743 H         7        0    0.0000
    113 H         216.9317  170.3858  108.0818 H         7        0    0.0000
    114 C         216.7990  172.5248  108.3344 C.3       8        0    0.0000
    115 C         215.2980  172.2706  108.5345 C.3       8        0    0.0000
    116 H         216.9187  173.1993  107.4769 H         8        0    0.0000
    117 H         217.2356  173.0373  109.1996 H         8        0    0.0000
    118 H         214.8215  172.2498  107.5460 H         8        0    0.0000
    119 H         215.1168  171.2902  108.9904 H         8        0    0.0000
    120 C         214.5687  173.3827  109.3652 C.3       9        0    0.0000
    121 C         213.4377  172.8532  110.2585 C.3       9        0    0.0000
    122 H         215.3264  173.8430  110.0122 H         9        0    0.0000
    123 H         214.2102  174.1708  108.6927 H         9        0    0.0000
    124 H         212.5870  172.5053  109.6608 H         9        0    0.0000
    125 H         213.8158  171.9795  110.8045 H         9        0    0.0000
    126 C         212.9424  173.8801  111.3350 C.3      10        0    0.0000
    127 C         211.8546  173.3296  112.2683 C.3      10        0    0.0000
    128 H         212.5219  174.7340  110.7884 H        10        0    0.0000
    129 H         213.7989  174.2624  111.9025 H        10        0    0.0000
    130 H         210.9928  173.0404  111.6533 H        10        0    0.0000
    131 H         212.1918  172.4217  112.7820 H        10        0    0.0000
    132 C         209.3678  172.9772  116.2611 C.3      11        0    0.0000
    133 C         210.4343  173.9108  115.7061 C.3      11        0    0.0000
    134 C         210.1846  173.8553  114.1954 C.3      11        0    0.0000
    135 C         211.3319  174.3686  113.3200 C.3      11        0    0.0000
    136 C         209.7279  172.4107  113.9124 C.3      11        0    0.0000
    137 C         209.4099  171.7939  115.2886 C.3      11        0    0.0000
    138 C         208.1927  170.8648  115.3305 C.3      11        0    0.0000
    139 H         209.5861  172.6724  117.2893 H        11        0    0.0000
    140 H         208.3951  173.4813  116.2549 H        11        0    0.0000
    141 H         210.3351  174.9262  116.1022 H        11        0    0.0000
    142 H         211.4288  173.5370  115.9734 H        11        0    0.0000
    143 H         209.3206  174.5055  113.9909 H        11        0    0.0000
    144 H         211.0024  175.2704  112.7904 H        11        0    0.0000
    145 H         212.1672  174.6688  113.9636 H        11        0    0.0000
    146 H         210.4961  171.8118  113.4116 H        11        0    0.0000
    147 H         208.8618  172.4253  113.2420 H        11        0    0.0000
    148 H         210.2802  171.1814  115.5690 H        11        0    0.0000
    149 H         208.0866  170.3698  114.3579 H        11        0    0.0000
    150 H         208.3708  170.0739  116.0687 H        11        0    0.0000
    151 C         205.3075  170.2346  118.8438 C.3      12        0    0.0000
    152 C         206.5034  170.3898  117.9007 C.3      12        0    0.0000
    153 C         205.9218  170.6998  116.5152 C.3      12        0    0.0000
    154 C         206.8526  171.5804  115.6769 C.3      12        0    0.0000
    155 C         204.5652  171.3334  116.8408 C.3      12        0    0.0000
    156 C         204.0531  170.4572  117.9888 C.3      12        0    0.0000
    157 C         202.9017  171.0677  118.7926 C.3      12        0    0.0000
    158 H         205.2930  169.2446  119.3122 H        12        0    0.0000
    159 H         205.3801  170.9743  119.6501 H        12        0    0.0000
    160 H         207.1141  169.4809  117.8759 H        12        0    0.0000
    161 H         207.1463  171.2035  118.2572 H        12        0    0.0000
    162 H         205.7479  169.7462  115.9954 H        12        0    0.0000
    163 H         207.0806  172.4978  116.2327 H        12        0    0.0000
    164 H         206.3531  171.8879  114.7507 H        12        0    0.0000
    165 H         203.8888  171.3164  115.9803 H        12        0    0.0000
    166 H         204.6855  172.3748  117.1647 H        12        0    0.0000
    167 H         203.7423  169.4860  117.5771 H        12        0    0.0000
    168 H         202.3949  171.8412  118.2038 H        12        0    0.0000
    169 H         203.3051  171.5627  119.6841 H        12        0    0.0000
    170 C         201.8667  170.0016  119.2455 C.3      13        0    0.0000
    171 C         200.7525  170.5562  120.1447 C.3      13        0    0.0000
    172 H         201.4023  169.6037  118.3342 H        13        0    0.0000
    173 H         202.3856  169.1630  119.7246 H        13        0    0.0000
    174 H         201.1306  171.3412  120.8100 H        13        0    0.0000
    175 H         199.9982  171.0268  119.5011 H        13        0    0.0000
    176 C         201.8912  166.3466  121.4639 C.3      14        0    0.0000
    177 C         201.9242  167.7749  120.9221 C.3      14        0    0.0000
    178 C         200.9810  168.6051  121.8098 C.3      14        0    0.0000
    179 C         200.0097  169.4620  120.9871 C.3      14        0    0.0000
    180 C         200.2919  167.5755  122.7185 C.3      14        0    0.0000
    181 C         201.3154  166.4442  122.8789 C.3      14        0    0.0000
    182 C         202.4111  166.7283  123.9225 C.3      14        0    0.0000
    183 H         201.2169  165.7460  120.8401 H        14        0    0.0000
    184 H         202.8757  165.8697  121.4274 H        14        0    0.0000
    185 H         201.6374  167.7891  119.8649 H        14        0    0.0000
    186 H         202.9407  168.1808  120.9855 H        14        0    0.0000
    187 H         201.5997  169.2651  122.4342 H        14        0    0.0000
    188 H         199.2727  169.9389  121.6436 H        14        0    0.0000
    189 H         199.4503  168.8162  120.2997 H        14        0    0.0000
    190 H         199.9816  168.0127  123.6725 H        14        0    0.0000
    191 H         199.3920  167.1788  122.2306 H        14        0    0.0000
    192 H         200.8057  165.5068  123.1360 H        14        0    0.0000
    193 H         203.2274  167.3177  123.4913 H        14        0    0.0000
    194 H         202.8505  165.7789  124.2520 H        14        0    0.0000
    195 C         201.8492  167.4580  125.1754 C.3      15        0    0.0000
    196 C         201.7065  166.5571  126.4104 C.3      15        0    0.0000
    197 H         202.5576  168.2602  125.4190 H        15        0    0.0000
    198 H         200.8992  167.9444  124.9245 H        15        0    0.0000
    199 H         202.0416  165.5349  126.1993 H        15        0    0.0000
    200 H         202.3670  166.9480  127.1951 H        15        0    0.0000
    201 C         198.7858  169.1169  129.1534 C.3      16        0    0.0000
    202 C         200.0692  168.5651  128.5344 C.3      16        0    0.0000
    203 C         199.6733  167.9323  127.1891 C.3      16        0    0.0000
    204 C         200.2588  166.5251  127.0118 C.3      16        0    0.0000
    205 C         198.1376  167.9781  127.1722 C.3      16        0    0.0000
    206 C         197.7708  169.2089  128.0111 C.3      16        0    0.0000
    207 C         197.8837  170.5447  127.2538 C.3      16        0    0.0000
    208 H         198.4202  168.4056  129.9050 H        16        0    0.0000
    209 H         198.9523  170.0703  129.6646 H        16        0    0.0000
    210 H         200.5469  167.8533  129.2165 H        16        0    0.0000
    211 H         200.7861  169.3766  128.3622 H        16        0    0.0000
    212 H         200.0522  168.5812  126.3869 H        16        0    0.0000
    213 H         199.6068  165.9191  126.3721 H        16        0    0.0000
    214 H         200.2997  166.0245  127.9867 H        16        0    0.0000
    215 H         197.7394  168.0181  126.1537 H        16        0    0.0000
    216 H         197.7245  167.0810  127.6516 H        16        0    0.0000
    217 H         196.7541  169.1048  128.4109 H        16        0    0.0000
    218 H         198.8932  170.6915  126.8552 H        16        0    0.0000
    219 H         197.6988  171.3712  127.9507 H        16        0    0.0000
    220 C         194.9689  167.9036  124.3229 C.3      17        0    0.0000
    221 C         195.1485  169.3784  124.6919 C.3      17        0    0.0000
    222 C         195.9695  169.4012  125.9879 C.3      17        0    0.0000
    223 C         196.8487  170.6499  126.0981 C.3      17        0    0.0000
    224 C         196.7422  168.0790  125.9339 C.3      17        0    0.0000
    225 C         195.6889  167.0965  125.4113 C.3      17        0    0.0000
    226 C         196.2554  165.7773  124.8789 C.3      17        0    0.0000
    227 H         193.9095  167.6309  124.2678 H        17        0    0.0000
    228 H         195.4036  167.7194  123.3331 H        17        0    0.0000
    229 H         194.1830  169.8769  124.8299 H        17        0    0.0000
    230 H         195.6688  169.8976  123.8781 H        17        0    0.0000
    231 H         195.2711  169.3648  126.8367 H        17        0    0.0000
    232 H         196.2132  171.5253  126.2778 H        17        0    0.0000
    233 H         197.3743  170.8296  125.1529 H        17        0    0.0000
    234 H         197.1216  167.7865  126.9182 H        17        0    0.0000
    235 H         197.5918  168.1484  125.2431 H        17        0    0.0000
    236 H         194.9698  166.8913  126.2177 H        17        0    0.0000
    237 H         197.1924  165.9563  124.3387 H        17        0    0.0000
    238 H         195.5515  165.3464  124.1568 H        17        0    0.0000
    239 C         194.1668  162.3457  127.6195 C.3      18        0    0.0000
    240 C         194.5505  163.0821  126.3337 C.3      18        0    0.0000
    241 C         195.2077  164.4058  126.7641 C.3      18        0    0.0000
    242 C         196.5002  164.7404  126.0092 C.3      18        0    0.0000
    243 C         195.4365  164.2466  128.2706 C.3      18        0    0.0000
    244 C         194.2684  163.3772  128.7484 C.3      18        0    0.0000
    245 C         192.9740  164.1889  128.9451 C.3      18        0    0.0000
    246 H         193.1830  161.8732  127.5403 H        18        0    0.0000
    247 H         194.8950  161.5441  127.7981 H        18        0    0.0000
    248 H         195.2130  162.4557  125.7264 H        18        0    0.0000
    249 H         193.6580  163.2885  125.7314 H        18        0    0.0000
    250 H         194.4810  165.2168  126.6131 H        18        0    0.0000
    251 H         197.2330  165.1567  126.7107 H        18        0    0.0000
    252 H         196.9442  163.8309  125.5886 H        18        0    0.0000
    253 H         195.4844  165.2131  128.7825 H        18        0    0.0000
    254 H         196.3829  163.7238  128.4601 H        18        0    0.0000
    255 H         194.5377  162.8851  129.6915 H        18        0    0.0000
    256 H         192.0924  163.6024  128.6636 H        18        0    0.0000
    257 H         192.9933  165.0689  128.2912 H        18        0    0.0000
    258 C         189.1542  164.1948  130.7506 C.3      19        0    0.0000
    259 C         190.3112  164.5562  129.8159 C.3      19        0    0.0000
    260 C         191.4015  165.1978  130.6927 C.3      19        0    0.0000
    261 C         192.8179  164.6803  130.4135 C.3      19        0    0.0000
    262 C         190.9504  164.9168  132.1297 C.3      19        0    0.0000
    263 C         189.4195  164.9378  132.0645 C.3      19        0    0.0000
    264 C         188.8506  166.3693  132.0761 C.3      19        0    0.0000
    265 H         188.1823  164.4229  130.3028 H        19        0    0.0000
    266 H         189.1761  163.1136  130.9380 H        19        0    0.0000
    267 H         190.6607  163.6615  129.2888 H        19        0    0.0000
    268 H         189.9776  165.2710  129.0546 H        19        0    0.0000
    269 H         191.3763  166.2853  130.5337 H        19        0    0.0000
    270 H         193.5402  165.4864  130.5893 H        19        0    0.0000
    271 H         193.0725  163.8691  131.1052 H        19        0    0.0000
    272 H         191.3560  165.6473  132.8371 H        19        0    0.0000
    273 H         191.2894  163.9227  132.4489 H        19        0    0.0000
    274 H         189.0074  164.3741  132.9112 H        19        0    0.0000
    275 H         189.4469  167.0373  131.4448 H        19        0    0.0000
    276 H         188.8953  166.7704  133.0957 H        19        0    0.0000
    277 C         187.3673  166.4051  131.6065 C.3      20        0    0.0000
    278 C         186.6579  167.7387  131.8813 C.3      20        0    0.0000
    279 H         187.3745  166.2406  130.5213 H        20        0    0.0000
    280 H         186.8198  165.5638  132.0473 H        20        0    0.0000
    281 H         186.8094  168.0651  132.9169 H        20        0    0.0000
    282 H         187.1135  168.5050  131.2410 H        20        0    0.0000
    283 C         183.7289  164.3586  131.1149 C.3      21        0    0.0000
    284 C         184.9506  165.1786  131.5268 C.3      21        0    0.0000
    285 C         184.4185  166.4914  132.1273 C.3      21        0    0.0000
    286 C         185.1252  167.7251  131.5505 C.3      21        0    0.0000
    287 C         182.9051  166.4567  131.8641 C.3      21        0    0.0000
    288 C         182.5395  164.9669  131.8624 C.3      21        0    0.0000
    289 C         182.3750  164.3563  133.2661 C.3      21        0    0.0000
    290 H         183.5731  164.4725  130.0345 H        21        0    0.0000
    291 H         183.8651  163.2904  131.3109 H        21        0    0.0000
    292 H         185.6103  165.3394  130.6671 H        21        0    0.0000
    293 H         185.5325  164.6380  132.2826 H        21        0    0.0000
    294 H         184.5863  166.4577  133.2130 H        21        0    0.0000
    295 H         184.6583  168.6425  131.9273 H        21        0    0.0000
    296 H         185.0061  167.7340  130.4604 H        21        0    0.0000
    297 H         182.3462  167.0354  132.6059 H        21        0    0.0000
    298 H         182.6802  166.8826  130.8776 H        21        0    0.0000
    299 H         181.6191  164.8041  131.2872 H        21        0    0.0000
    300 H         183.3456  164.2096  133.7520 H        21        0    0.0000
    301 H         181.9166  163.3639  133.1764 H        21        0    0.0000
    302 C         180.8896  168.7417  133.2941 C.3      22        0    0.0000
    303 C         181.6055  167.4440  132.9229 C.3      22        0    0.0000
    304 C         180.6968  166.2914  133.3842 C.3      22        0    0.0000
    305 C         181.4639  165.2258  134.1781 C.3      22        0    0.0000
    306 C         179.5718  166.9739  134.1775 C.3      22        0    0.0000
    307 C         179.4272  168.3622  133.5413 C.3      22        0    0.0000
    308 C         178.6060  168.3768  132.2390 C.3      22        0    0.0000
    309 H         181.3232  169.1329  134.2234 H        22        0    0.0000
    310 H         181.0146  169.5142  132.5289 H        22        0    0.0000
    311 H         182.6003  167.4121  133.3807 H        22        0    0.0000
    312 H         181.7487  167.3874  131.8374 H        22        0    0.0000
    313 H         180.2616  165.8262  132.4885 H        22        0    0.0000
    314 H         180.7653  164.5811  134.7239 H        22        0    0.0000
    315 H         182.0938  165.7174  134.9292 H        22        0    0.0000
    316 H         178.6444  166.3932  134.1569 H        22        0    0.0000
    317 H         179.8636  167.0898  135.2294 H        22        0    0.0000
    318 H         178.9799  169.0622  134.2585 H        22        0    0.0000
    319 H         179.0507  167.7226  131.4815 H        22        0    0.0000
    320 H         178.6121  169.3904  131.8200 H        22        0    0.0000
    321 C         178.0154  168.1049  136.0776 C.3      23        0    0.0000
    322 C         178.1091  167.3119  134.7717 C.3      23        0    0.0000
    323 C         176.8513  167.6587  133.9550 C.3      23        0    0.0000
    324 C         177.1259  167.9643  132.4774 C.3      23        0    0.0000
    325 C         176.2338  168.8512  134.6925 C.3      23        0    0.0000
    326 C         176.5709  168.6090  136.1676 C.3      23        0    0.0000
    327 C         175.6167  167.5971  136.8299 C.3      23        0    0.0000
    328 H         178.3296  167.5088  136.9396 H        23        0    0.0000
    329 H         178.6936  168.9657  136.0175 H        23        0    0.0000
    330 H         179.0386  167.5607  134.2480 H        23        0    0.0000
    331 H         178.1326  166.2358  134.9797 H        23        0    0.0000
    332 H         176.1509  166.8142  134.0251 H        23        0    0.0000
    333 H         176.9121  167.0725  131.8763 H        23        0    0.0000
    334 H         176.4578  168.7562  132.1196 H        23        0    0.0000
    335 H         175.1573  168.9333  134.5102 H        23        0    0.0000
    336 H         176.6988  169.7883  134.3600 H        23        0    0.0000
    337 H         176.5322  169.5596  136.7147 H        23        0    0.0000
    338 H         176.1224  167.0383  137.6252 H        23        0    0.0000
    339 H         175.2892  166.8635  136.0837 H        23        0    0.0000
    340 C         175.2179  169.2536  140.9865 C.3      24        0    0.0000
    341 C         175.4921  168.4322  139.7345 C.3      24        0    0.0000
    342 C         174.6124  169.1120  138.6803 C.3      24        0    0.0000
    343 C         174.3521  168.2919  137.4130 C.3      24        0    0.0000
    344 C         173.3550  169.5778  139.4402 C.3      24        0    0.0000
    345 C         173.6997  169.4549  140.9373 C.3      24        0    0.0000
    346 C         173.1552  170.5709  141.8342 C.3      24        0    0.0000
    347 H         175.5343  168.7320  141.8951 H        24        0    0.0000
    348 H         175.7615  170.2032  140.9324 H        24        0    0.0000
    349 H         176.5511  168.4483  139.4588 H        24        0    0.0000
    350 H         175.2007  167.3899  139.9046 H        24        0    0.0000
    351 H         175.1431  170.0215  138.3603 H        24        0    0.0000
    352 H         173.5983  167.5261  137.6308 H        24        0    0.0000
    353 H         173.9237  168.9461  136.6444 H        24        0    0.0000
    354 H         172.4724  168.9688  139.2166 H        24        0    0.0000
    355 H         173.1064  170.6024  139.1433 H        24        0    0.0000
    356 H         173.2423  168.5186  141.2911 H        24        0    0.0000
    357 H         173.0625  170.1932  142.8593 H        24        0    0.0000
    358 H         173.8811  171.3920  141.8654 H        24        0    0.0000
    359 C         169.3608  168.2440  141.5291 C.3      25        0    0.0000
    360 C         170.6179  168.9629  141.9945 C.3      25        0    0.0000
    361 C         170.8099  170.0427  140.9276 C.3      25        0    0.0000
    362 C         171.7760  171.1390  141.3834 C.3      25        0    0.0000
    363 C         169.3779  170.5271  140.6353 C.3      25        0    0.0000
    364 C         168.4403  169.3858  141.0799 C.3      25        0    0.0000
    365 C         167.3555  168.9935  140.0688 C.3      25        0    0.0000
    366 H         168.9116  167.6473  142.3292 H        25        0    0.0000
    367 H         169.6104  167.5661  140.7057 H        25        0    0.0000
    368 H         170.4564  169.4082  142.9838 H        25        0    0.0000
    369 H         171.4762  168.2873  142.0587 H        25        0    0.0000
    370 H         171.2020  169.5631  140.0190 H        25        0    0.0000
    371 H         171.9308  171.8659  140.5772 H        25        0    0.0000
    372 H         171.3309  171.6887  142.2213 H        25        0    0.0000
    373 H         169.1391  171.4299  141.2111 H        25        0    0.0000
    374 H         169.2663  170.7873  139.5774 H        25        0    0.0000
    375 H         167.9127  169.7445  141.9762 H        25        0    0.0000
    376 H         166.6342  168.3277  140.5575 H        25        0    0.0000
    377 H         167.8165  168.4163  139.2584 H        25        0    0.0000
    378 C         163.1574  169.1874  138.4616 C.3      26        0    0.0000
    379 C         164.5326  168.7227  138.9472 C.3      26        0    0.0000
    380 C         165.5555  169.7408  138.4121 C.3      26        0    0.0000
    381 C         166.5892  170.1973  139.4490 C.3      26        0    0.0000
    382 C         164.7022  170.9007  137.8891 C.3      26        0    0.0000
    383 C         163.4207  170.2358  137.3752 C.3      26        0    0.0000
    384 C         163.5984  169.6232  135.9730 C.3      26        0    0.0000
    385 H         162.5393  168.3494  138.1259 H        26        0    0.0000
    386 H         162.6290  169.6617  139.2986 H        26        0    0.0000
    387 H         164.5384  168.6477  140.0402 H        26        0    0.0000
    388 H         164.7592  167.7252  138.5530 H        26        0    0.0000
    389 H         166.0774  169.2883  137.5568 H        26        0    0.0000
    390 H         167.3165  170.8624  138.9682 H        26        0    0.0000
    391 H         166.1048  170.7772  140.2430 H        26        0    0.0000
    392 H         165.2220  171.4763  137.1164 H        26        0    0.0000
    393 H         164.4540  171.5909  138.7059 H        26        0    0.0000
    394 H         162.6079  170.9728  137.3514 H        26        0    0.0000
    395 H         164.1557  168.6811  136.0205 H        26        0    0.0000
    396 H         164.1836  170.3082  135.3480 H        26        0    0.0000
    397 C         162.2307  169.3776  135.2724 C.3      27        0    0.0000
    398 C         161.6097  168.0074  135.5794 C.3      27        0    0.0000
    399 H         161.5441  170.1521  135.6376 H        27        0    0.0000
    400 H         162.3351  169.5353  134.1926 H        27        0    0.0000
    401 H         161.0959  167.5968  134.7023 H        27        0    0.0000
    402 H         162.4231  167.3113  135.8208 H        27        0    0.0000
    403 C         157.0729  169.2403  136.4337 C.3      28        0    0.0000
    404 C         158.2320  168.3981  135.9230 C.3      28        0    0.0000
    405 C         159.4447  168.9660  136.6712 C.3      28        0    0.0000
    406 C         160.6364  168.0099  136.8087 C.3      28        0    0.0000
    407 C         158.8911  169.5286  137.9966 C.3      28        0    0.0000
    408 C         157.3632  169.3502  137.9320 C.3      28        0    0.0000
    409 C         156.5591  170.4713  138.5949 C.3      28        0    0.0000
    410 H         157.0810  170.2273  135.9555 H        28        0    0.0000
    411 H         156.1054  168.7701  136.2330 H        28        0    0.0000
    412 H         158.0536  167.3448  136.1647 H        28        0    0.0000
    413 H         158.3475  168.4776  134.8375 H        28        0    0.0000
    414 H         159.8052  169.8284  136.0909 H        28        0    0.0000
    415 H         161.2059  168.2782  137.7066 H        28        0    0.0000
    416 H         160.2621  166.9915  136.9669 H        28        0    0.0000
    417 H         159.1639  170.5883  138.0761 H        28        0    0.0000
    418 H         159.3016  169.0287  138.8802 H        28        0    0.0000
    419 H         157.1098  168.3893  138.4032 H        28        0    0.0000
    420 H         156.8067  170.5348  139.6612 H        28        0    0.0000
    421 H         156.8415  171.4323  138.1487 H        28        0    0.0000
    422 C         153.7195  173.2702  136.4884 C.3      29        0    0.0000
    423 C         154.7866  172.6229  137.3600 C.3      29        0    0.0000
    424 C         154.3922  171.1425  137.3404 C.3      29        0    0.0000
    425 C         155.0247  170.2791  138.4361 C.3      29        0    0.0000
    426 C         152.8517  171.1336  137.2937 C.3      29        0    0.0000
    427 C         152.4338  172.5770  136.9510 C.3      29        0    0.0000
    428 C         151.2373  172.7108  136.0040 C.3      29        0    0.0000
    429 H         153.6766  174.3543  136.6319 H        29        0    0.0000
    430 H         153.9359  173.0750  135.4323 H        29        0    0.0000
    431 H         155.7932  172.7857  136.9624 H        29        0    0.0000
    432 H         154.7470  173.0467  138.3695 H        29        0    0.0000
    433 H         154.7397  170.7326  136.3800 H        29        0    0.0000
    434 H         154.5405  170.5044  139.3936 H        29        0    0.0000
    435 H         154.8224  169.2230  138.2216 H        29        0    0.0000
    436 H         152.3987  170.8377  138.2461 H        29        0    0.0000
    437 H         152.5122  170.4042  136.5505 H        29        0    0.0000
    438 H         152.1375  173.0533  137.8978 H        29        0    0.0000
    439 H         151.1319  173.7608  135.7064 H        29        0    0.0000
    440 H         151.4398  172.1427  135.0883 H        29        0    0.0000
    441 C         150.8523  171.6811  140.2134 C.3      30        0    0.0000
    442 C         151.1314  172.2235  138.8201 C.3      30        0    0.0000
    443 C         150.0610  171.5412  137.9659 C.3      30        0    0.0000
    444 C         149.8857  172.2232  136.6069 C.3      30        0    0.0000
    445 C         148.8095  171.5612  138.8626 C.3      30        0    0.0000
    446 C         149.3217  171.7112  140.3099 C.3      30        0    0.0000
    447 C         148.7103  170.7407  141.3284 C.3      30        0    0.0000
    448 H         151.3230  172.2907  140.9911 H        30        0    0.0000
    449 H         151.2517  170.6646  140.2973 H        30        0    0.0000
    450 H         151.0131  173.3139  138.8064 H        30        0    0.0000
    451 H         152.1446  171.9844  138.4828 H        30        0    0.0000
    452 H         150.3577  170.4931  137.8146 H        30        0    0.0000
    453 H         149.4008  171.5394  135.9002 H        30        0    0.0000
    454 H         149.2182  173.0861  136.7179 H        30        0    0.0000
    455 H         148.1630  172.4146  138.6226 H        30        0    0.0000
    456 H         148.2104  170.6573  138.7105 H        30        0    0.0000
    457 H         149.0405  172.7227  140.6389 H        30        0    0.0000
    458 H         148.5059  171.2812  142.2602 H        30        0    0.0000
    459 H         149.4485  169.9666  141.5698 H        30        0    0.0000
    460 C         146.4960  166.9712  142.8663 C.3      31        0    0.0000
    461 C         146.5993  167.6778  141.5233 C.3      31        0    0.0000
    462 C         146.7346  169.1571  141.9061 C.3      31        0    0.0000
    463 C         147.4013  170.0486  140.8508 C.3      31        0    0.0000
    464 C         147.3996  169.1686  143.2980 C.3      31        0    0.0000
    465 C         147.5441  167.6936  143.7152 C.3      31        0    0.0000
    466 C         147.3562  167.4302  145.2113 C.3      31        0    0.0000
    467 H         145.4906  167.0982  143.2859 H        31        0    0.0000
    468 H         146.6991  165.8992  142.7818 H        31        0    0.0000
    469 H         147.4774  167.3091  140.9823 H        31        0    0.0000
    470 H         145.7200  167.4963  140.8974 H        31        0    0.0000
    471 H         145.7153  169.5481  142.0423 H        31        0    0.0000
    472 H         147.6278  169.4429  139.9651 H        31        0    0.0000
    473 H         146.6894  170.8187  140.5309 H        31        0    0.0000
    474 H         146.7557  169.7174  143.9965 H        31        0    0.0000
    475 H         148.3735  169.6693  143.3047 H        31        0    0.0000
    476 H         148.5394  167.3448  143.4037 H        31        0    0.0000
    477 H         146.6342  166.6194  145.3650 H        31        0    0.0000
    478 H         148.3062  167.0912  145.6416 H        31        0    0.0000
    479 C         146.8808  168.6925  145.9840 C.3      32        0    0.0000
    480 C         146.3859  168.4026  147.4083 C.3      32        0    0.0000
    481 H         147.7452  169.3652  146.0543 H        32        0    0.0000
    482 H         146.1200  169.2202  145.3970 H        32        0    0.0000
    483 H         147.2106  168.0964  148.0625 H        32        0    0.0000
    484 H         145.9840  169.3348  147.8254 H        32        0    0.0000
    485 C         144.2272  165.0622  150.1741 C.3      33        0    0.0000
    486 C         145.3731  165.8585  149.5517 C.3      33        0    0.0000
    487 C         144.7453  167.1104  148.9148 C.3      33        0    0.0000
    488 C         145.2337  167.3414  147.4787 C.3      33        0    0.0000
    489 C         143.2292  166.8906  149.0327 C.3      33        0    0.0000
    490 C         143.0518  166.0356  150.2939 C.3      33        0    0.0000
    491 C         143.1038  166.8339  151.6094 C.3      33        0    0.0000
    492 H         143.9522  164.2458  149.4941 H        33        0    0.0000
    493 H         144.5128  164.6065  151.1274 H        33        0    0.0000
    494 H         145.9194  165.2413  148.8302 H        33        0    0.0000
    495 H         146.0893  166.1596  150.3254 H        33        0    0.0000
    496 H         145.0226  167.9772  149.5310 H        33        0    0.0000
    497 H         144.4012  167.6576  146.8395 H        33        0    0.0000
    498 H         145.6076  166.3963  147.0670 H        33        0    0.0000
    499 H         142.6794  167.8359  149.0736 H        33        0    0.0000
    500 H         142.8568  166.3312  148.1646 H        33        0    0.0000
    501 H         142.1061  165.4809  150.2448 H        33        0    0.0000
    502 H         142.6127  167.8071  151.5033 H        33        0    0.0000
    503 H         144.1503  167.0376  151.8667 H        33        0    0.0000
    504 C         139.3829  164.2188  151.6125 C.3      34        0    0.0000
    505 C         140.8100  164.7054  151.4117 C.3      34        0    0.0000
    506 C         140.9885  165.7199  152.5430 C.3      34        0    0.0000
    507 C         142.4615  166.0541  152.7914 C.3      34        0    0.0000
    508 C         140.2660  165.0683  153.7363 C.3      34        0    0.0000
    509 C         139.2705  164.0558  153.1336 C.3      34        0    0.0000
    510 C         137.8447  164.1203  153.6957 C.3      34        0    0.0000
    511 H         139.1940  163.2783  151.0854 H        34        0    0.0000
    512 H         138.6831  164.9667  151.2242 H        34        0    0.0000
    513 H         141.5138  163.8705  151.5140 H        34        0    0.0000
    514 H         140.9541  165.1562  150.4250 H        34        0    0.0000
    515 H         140.4452  166.6369  152.2721 H        34        0    0.0000
    516 H         142.5661  166.6419  153.7111 H        34        0    0.0000
    517 H         143.0227  165.1249  152.9464 H        34        0    0.0000
    518 H         140.9719  164.5328  154.3833 H        34        0    0.0000
    519 H         139.7817  165.8293  154.3574 H        34        0    0.0000
    520 H         139.6547  163.0544  153.3786 H        34        0    0.0000
    521 H         137.3723  163.1367  153.5878 H        34        0    0.0000
    522 H         137.2552  164.8198  153.0910 H        34        0    0.0000
    523 C         141.2116  164.6557  156.7064 C.3      35        0    0.0000
    524 C         140.2893  164.5510  155.4889 C.3      35        0    0.0000
    525 C         138.9410  164.0394  156.0128 C.3      35        0    0.0000
    526 C         137.7608  164.5578  155.1863 C.3      35        0    0.0000
    527 C         138.9423  164.4910  157.4771 C.3      35        0    0.0000
    528 C         140.3821  164.2030  157.9152 C.3      35        0    0.0000
    529 C         140.8078  164.9037  159.2084 C.3      35        0    0.0000
    530 H         142.1043  164.0324  156.5870 H        35        0    0.0000
    531 H         141.5517  165.6922  156.8186 H        35        0    0.0000
    532 H         140.6998  163.8729  154.7330 H        35        0    0.0000
    533 H         140.1897  165.5375  155.0205 H        35        0    0.0000
    534 H         138.9573  162.9401  155.9848 H        35        0    0.0000
    535 H         137.7435  165.6535  155.2276 H        35        0    0.0000
    536 H         136.8140  164.2104  155.6159 H        35        0    0.0000
    537 H         138.2137  163.9364  158.0768 H        35        0    0.0000
    538 H         138.7134  165.5610  157.5584 H        35        0    0.0000
    539 H         140.5041  163.1157  158.0265 H        35        0    0.0000
    540 H         141.8992  164.8842  159.3100 H        35        0    0.0000
    541 H         140.4005  164.3569  160.0673 H        35        0    0.0000
    542 C         136.5551  166.7805  159.7130 C.3      36        0    0.0000
    543 C         137.9796  167.1269  160.1232 C.3      36        0    0.0000
    544 C         138.8157  166.5449  158.9787 C.3      36        0    0.0000
    545 C         140.3084  166.3730  159.2764 C.3      36        0    0.0000
    546 C         138.0735  165.2663  158.5433 C.3      36        0    0.0000
    547 C         136.6854  165.3394  159.2091 C.3      36        0    0.0000
    548 C         135.5172  164.8324  158.3580 C.3      36        0    0.0000
    549 H         135.8570  166.8612  160.5520 H        36        0    0.0000
    550 H         136.2204  167.4640  158.9250 H        36        0    0.0000
    551 H         138.1232  168.2066  160.2297 H        36        0    0.0000
    552 H         138.2127  166.6561  161.0846 H        36        0    0.0000
    553 H         138.7441  167.2531  158.1393 H        36        0    0.0000
    554 H         140.8869  166.9749  158.5656 H        36        0    0.0000
    555 H         140.5230  166.7721  160.2749 H        36        0    0.0000
    556 H         138.5831  164.3497  158.8591 H        36        0    0.0000
    557 H         138.0197  165.2286  157.4499 H        36        0    0.0000
    558 H         136.7274  164.6930  160.0988 H        36        0    0.0000
    559 H         134.5997  164.8579  158.9578 H        36        0    0.0000
    560 H         135.3626  165.5182  157.5166 H        36        0    0.0000
    561 C         136.9530  162.3377  161.1340 C.3      37        0    0.0000
    562 C         137.2344  162.4009  159.6307 C.3      37        0    0.0000
    563 C         135.8671  162.3607  158.9250 C.3      37        0    0.0000
    564 C         135.7102  163.3905  157.7994 C.3      37        0    0.0000
    565 C         134.8496  162.5679  160.0514 C.3      37        0    0.0000
    566 C         135.4896  161.9053  161.2761 C.3      37        0    0.0000
    567 C         135.3078  160.3756  161.2787 C.3      37        0    0.0000
    568 H         137.6593  161.6831  161.6534 H        37        0    0.0000
    569 H         137.0740  163.3426  161.5585 H        37        0    0.0000
    570 H         137.8089  163.3034  159.3946 H        37        0    0.0000
    571 H         137.8393  161.5413  159.3194 H        37        0    0.0000
    572 H         135.7206  161.3515  158.5141 H        37        0    0.0000
    573 H         136.6072  163.3788  157.1689 H        37        0    0.0000
    574 H         134.8646  163.1265  157.1539 H        37        0    0.0000
    575 H         133.8706  162.1456  159.8025 H        37        0    0.0000
    576 H         134.7087  163.6389  160.2467 H        37        0    0.0000
    577 H         135.0548  162.3264  162.1915 H        37        0    0.0000
    578 H         136.1589  159.8768  161.7552 H        37        0    0.0000
    579 H         135.2636  160.0126  160.2450 H        37        0    0.0000
    580 C         130.9454  161.7529  160.6511 C.3      38        0    0.0000
    581 C         132.3647  161.2438  160.4511 C.3      38        0    0.0000
    582 C         132.8510  160.9675  161.8795 C.3      38        0    0.0000
    583 C         133.9942  159.9514  161.9973 C.3      38        0    0.0000
    584 C         131.5841  160.6358  162.6946 C.3      38        0    0.0000
    585 C         130.3961  160.8205  161.7327 C.3      38        0    0.0000
    586 C         129.1263  161.3756  162.3828 C.3      38        0    0.0000
    587 H         130.9605  162.7939  160.9962 H        38        0    0.0000
    588 H         130.3596  161.7063  159.7279 H        38        0    0.0000
    589 H         132.3451  160.3360  159.8385 H        38        0    0.0000
    590 H         132.9942  161.9789  159.9400 H        38        0    0.0000
    591 H         133.2392  161.9175  162.2760 H        38        0    0.0000
    592 H         134.2132  159.7839  163.0587 H        38        0    0.0000
    593 H         133.6618  158.9893  161.5897 H        38        0    0.0000
    594 H         131.5166  161.3251  163.5455 H        38        0    0.0000
    595 H         131.5925  159.6219  163.1082 H        38        0    0.0000
    596 H         130.1755  159.8479  161.2693 H        38        0    0.0000
    597 H         128.2766  161.2782  161.6967 H        38        0    0.0000
    598 H         128.8837  160.7798  163.2707 H        38        0    0.0000
    599 C         126.6165  164.2018  165.1697 C.3      39        0    0.0000
    600 C         128.0780  164.0549  164.7701 C.3      39        0    0.0000
    601 C         127.9884  163.4962  163.3462 C.3      39        0    0.0000
    602 C         129.2747  162.8641  162.8059 C.3      39        0    0.0000
    603 C         126.7479  162.5815  163.3465 C.3      39        0    0.0000
    604 C         125.9874  162.9061  164.6472 C.3      39        0    0.0000
    605 C         124.4599  162.9158  164.5342 C.3      39        0    0.0000
    606 H         126.4975  164.3093  166.2523 H        39        0    0.0000
    607 H         126.1893  165.0897  164.6907 H        39        0    0.0000
    608 H         128.6092  165.0112  164.8040 H        39        0    0.0000
    609 H         128.5807  163.3621  165.4539 H        39        0    0.0000
    610 H         127.7554  164.3443  162.6849 H        39        0    0.0000
    611 H         129.6226  163.4428  161.9420 H        39        0    0.0000
    612 H         130.0581  162.9367  163.5696 H        39        0    0.0000
    613 H         127.0040  161.5168  163.3283 H        39        0    0.0000
    614 H         126.1528  162.7715  162.4468 H        39        0    0.0000
    615 H         126.2423  162.1146  165.3681 H        39        0    0.0000
    616 H         124.1699  162.4924  163.5653 H        39        0    0.0000
    617 H         124.0394  162.2579  165.3040 H        39        0    0.0000
    618 C         125.4851  166.5522  167.1338 C.3      40        0    0.0000
    619 C         125.4578  165.1683  166.4805 C.3      40        0    0.0000
    620 C         123.9943  164.8945  166.0903 C.3      40        0    0.0000
    621 C         123.8162  164.3277  164.6764 C.3      40        0    0.0000
    622 C         123.2920  166.2441  166.2707 C.3      40        0    0.0000
    623 C         124.0262  166.9077  167.4407 C.3      40        0    0.0000
    624 C         123.5496  166.3814  168.8078 C.3      40        0    0.0000
    625 H         126.1392  166.5760  168.0106 H        40        0    0.0000
    626 H         125.8874  167.2753  166.4128 H        40        0    0.0000
    627 H         126.1385  165.1455  165.6223 H        40        0    0.0000
    628 H         125.8032  164.4055  167.1881 H        40        0    0.0000
    629 H         123.5695  164.1887  166.8185 H        40        0    0.0000
    630 H         122.7465  164.2469  164.4496 H        40        0    0.0000
    631 H         124.2479  165.0087  163.9338 H        40        0    0.0000
    632 H         122.2189  166.1268  166.4536 H        40        0    0.0000
    633 H         123.4093  166.8592  165.3691 H        40        0    0.0000
    634 H         123.8813  167.9946  167.3971 H        40        0    0.0000
    635 H         124.3831  166.3043  169.5146 H        40        0    0.0000
    636 H         123.1404  165.3714  168.6863 H        40        0    0.0000
    637 C         123.5474  170.5975  170.6680 C.3      41        0    0.0000
    638 C         123.9607  169.2840  169.9996 C.3      41        0    0.0000
    639 C         122.9912  168.2046  170.5134 C.3      41        0    0.0000
    640 C         122.4384  167.2837  169.4186 C.3      41        0    0.0000
    641 C         121.8868  168.9914  171.2265 C.3      41        0    0.0000
    642 C         122.6007  170.2150  171.8108 C.3      41        0    0.0000
    643 C         123.3371  169.8935  173.1252 C.3      41        0    0.0000
    644 H         124.4150  171.1814  170.9899 H        41        0    0.0000
    645 H         123.0015  171.2088  169.9380 H        41        0    0.0000
    646 H         123.9364  169.3941  168.9098 H        41        0    0.0000
    647 H         124.9889  169.0225  170.2758 H        41        0    0.0000
    648 H         123.5171  167.5978  171.2643 H        41        0    0.0000
    649 H         121.6613  166.6383  169.8451 H        41        0    0.0000
    650 H         121.9623  167.8733  168.6267 H        41        0    0.0000
    651 H         121.3814  168.3896  171.9888 H        41        0    0.0000
    652 H         121.1265  169.3207  170.5064 H        41        0    0.0000
    653 H         121.8722  171.0167  171.9870 H        41        0    0.0000
    654 H         124.3051  170.4045  173.1716 H        41        0    0.0000
    655 H         123.5422  168.8174  173.1735 H        41        0    0.0000
    656 C         119.2209  171.2221  172.9927 C.3      42        0    0.0000
    657 C         120.5017  170.4175  172.7766 C.3      42        0    0.0000
    658 C         120.9964  169.9932  174.1702 C.3      42        0    0.0000
    659 C         122.4899  170.2814  174.3717 C.3      42        0    0.0000
    660 C         120.0776  170.7342  175.1537 C.3      42        0    0.0000
    661 C         118.7454  170.8879  174.4090 C.3      42        0    0.0000
    662 C         117.8611  169.6278  174.4315 C.3      42        0    0.0000
    663 H         119.4598  172.2918  172.9349 H        42        0    0.0000
    664 H         118.4707  171.0165  172.2227 H        42        0    0.0000
    665 H         121.2381  171.0126  172.2255 H        42        0    0.0000
    666 H         120.2919  169.5261  172.1737 H        42        0    0.0000
    667 H         120.8230  168.9128  174.2748 H        42        0    0.0000
    668 H         122.8651  169.7487  175.2532 H        42        0    0.0000
    669 H         122.6291  171.3517  174.5657 H        42        0    0.0000
    670 H         119.9793  170.2013  176.1045 H        42        0    0.0000
    671 H         120.4817  171.7305  175.3757 H        42        0    0.0000
    672 H         118.1789  171.7343  174.8180 H        42        0    0.0000
    673 H         118.3531  168.7881  173.9289 H        42        0    0.0000
    674 H         116.9360  169.8262  173.8768 H        42        0    0.0000
    675 C         117.4737  169.2120  175.8788 C.3      43        0    0.0000
    676 C         118.5951  168.4931  176.6426 C.3      43        0    0.0000
    677 H         117.2313  170.1357  176.4197 H        43        0    0.0000
    678 H         116.5569  168.6113  175.8578 H        43        0    0.0000
    679 H         118.1931  167.7152  177.3024 H        43        0    0.0000
    680 H         119.2338  167.9837  175.9098 H        43        0    0.0000
    681 C         120.9917  172.8208  176.4876 C.3      44        0    0.0000
    682 C         121.1507  171.3233  176.7100 C.3      44        0    0.0000
    683 C         119.7021  170.8414  176.8400 C.3      44        0    0.0000
    684 C         119.5243  169.4534  177.4630 C.3      44        0    0.0000
    685 C         118.9550  171.9884  177.5484 C.3      44        0    0.0000
    686 C         119.9031  173.2024  177.4960 C.3      44        0    0.0000
    687 C         119.2292  174.5566  177.2551 C.3      44        0    0.0000
    688 H         121.9259  173.3621  176.6665 H        44        0    0.0000
    689 H         120.6811  173.0105  175.4543 H        44        0    0.0000
    690 H         121.6719  170.8395  175.8781 H        44        0    0.0000
    691 H         121.7282  171.1441  177.6236 H        44        0    0.0000
    692 H         119.2934  170.7807  175.8200 H        44        0    0.0000
    693 H         120.5080  168.9821  177.5737 H        44        0    0.0000
    694 H         119.1125  169.5641  178.4731 H        44        0    0.0000
    695 H         118.7123  171.7582  178.5914 H        44        0    0.0000
    696 H         118.0008  172.1712  177.0425 H        44        0    0.0000
    697 H         120.3893  173.2662  178.4813 H        44        0    0.0000
    698 H         120.0016  175.3292  177.1613 H        44        0    0.0000
    699 H         118.6961  174.5264  176.2975 H        44        0    0.0000
    700 C         119.3542  173.0980  181.4397 C.3      45        0    0.0000
    701 C         119.5043  173.4511  179.9576 C.3      45        0    0.0000
    702 C         118.1274  173.9409  179.4901 C.3      45        0    0.0000
    703 C         118.2289  174.9818  178.3717 C.3      45        0    0.0000
    704 C         117.4827  174.4530  180.7824 C.3      45        0    0.0000
    705 C         117.8930  173.3890  181.8059 C.3      45        0    0.0000
    706 C         117.7331  173.8150  183.2680 C.3      45        0    0.0000
    707 H         119.6049  172.0485  181.6284 H        45        0    0.0000
    708 H         120.0458  173.7088  182.0323 H        45        0    0.0000
    709 H         119.8333  172.5863  179.3714 H        45        0    0.0000
    710 H         120.2674  174.2303  179.8435 H        45        0    0.0000
    711 H         117.5568  173.0706  179.1344 H        45        0    0.0000
    712 H         118.5638  175.9364  178.7949 H        45        0    0.0000
    713 H         117.2423  175.1614  177.9287 H        45        0    0.0000
    714 H         116.3950  174.5356  180.6920 H        45        0    0.0000
    715 H         117.8820  175.4373  181.0574 H        45        0    0.0000
    716 H         117.3052  172.4783  181.6199 H        45        0    0.0000
    717 H         118.0393  174.8599  183.3953 H        45        0    0.0000
    718 H         118.3998  173.2116  183.8957 H        45        0    0.0000
    719 C         115.5336  173.6065  187.4943 C.3      46        0    0.0000
    720 C         115.1269  173.2578  186.0707 C.3      46        0    0.0000
    721 C         116.0430  174.1375  185.2105 C.3      46        0    0.0000
    722 C         116.2774  173.6367  183.7797 C.3      46        0    0.0000
    723 C         117.3172  174.3599  186.0510 C.3      46        0    0.0000
    724 C         117.0595  173.6777  187.4071 C.3      46        0    0.0000
    725 C         117.6736  174.3954  188.6116 C.3      46        0    0.0000
    726 H         115.1081  174.5750  187.7844 H        46        0    0.0000
    727 H         115.1948  172.8542  188.2130 H        46        0    0.0000
    728 H         115.2941  172.1899  185.8934 H        46        0    0.0000
    729 H         114.0685  173.4661  185.8856 H        46        0    0.0000
    730 H         115.5527  175.1182  185.1187 H        46        0    0.0000
    731 H         116.0149  172.5733  183.7276 H        46        0    0.0000
    732 H         115.5958  174.1619  183.1001 H        46        0    0.0000
    733 H         117.4801  175.4379  186.1737 H        46        0    0.0000
    734 H         118.2188  173.9548  185.5797 H        46        0    0.0000
    735 H         117.4496  172.6508  187.3541 H        46        0    0.0000
    736 H         118.5358  173.8324  188.9881 H        46        0    0.0000
    737 H         118.0513  175.3751  188.2957 H        46        0    0.0000
    738 C         114.5715  171.4519  189.3376 C.3      47        0    0.0000
    739 C         115.8000  172.2823  188.9932 C.3      47        0    0.0000
    740 C         115.7832  173.3777  190.0645 C.3      47        0    0.0000
    741 C         116.6534  174.6024  189.7661 C.3      47        0    0.0000
    742 C         114.2922  173.6692  190.3235 C.3      47        0    0.0000
    743 C         113.5169  172.5171  189.6549 C.3      47        0    0.0000
    744 C         112.2872  172.0175  190.4194 C.3      47        0    0.0000
    745 H         114.2679  170.8071  188.5070 H        47        0    0.0000
    746 H         114.7864  170.8143  190.2022 H        47        0    0.0000
    747 H         116.7181  171.6877  189.0273 H        47        0    0.0000
    748 H         115.6977  172.6927  187.9826 H        47        0    0.0000
    749 H         116.1820  172.9282  190.9864 H        47        0    0.0000
    750 H         116.0046  175.4500  189.5151 H        47        0    0.0000
    751 H         117.2009  174.8828  190.6738 H        47        0    0.0000
    752 H         113.9653  174.6248  189.8996 H        47        0    0.0000
    753 H         114.1137  173.7328  191.4023 H        47        0    0.0000
    754 H         113.1507  172.9005  188.6906 H        47        0    0.0000
    755 H         111.7656  171.2704  189.8096 H        47        0    0.0000
    756 H         112.6158  171.5057  191.3317 H        47        0    0.0000
    757 C         111.7683  176.3728  188.9005 C.3      48        0    0.0000
    758 C         111.8965  174.8590  188.9743 C.3      48        0    0.0000
    759 C         111.7451  174.5589  190.4710 C.3      48        0    0.0000
    760 C         111.2773  173.1380  190.8103 C.3      48        0    0.0000
    761 C         110.8711  175.6965  191.0381 C.3      48        0    0.0000
    762 C         110.6213  176.6673  189.8694 C.3      48        0    0.0000
    763 C         110.5652  178.1448  190.2653 C.3      48        0    0.0000
    764 H         112.6989  176.8493  189.2322 H        48        0    0.0000
    765 H         111.5505  176.7164  187.8847 H        48        0    0.0000
    766 H         111.1038  174.3950  188.3777 H        48        0    0.0000
    767 H         112.8574  174.5108  188.5828 H        48        0    0.0000
    768 H         112.7412  174.6732  190.9239 H        48        0    0.0000
    769 H         111.0832  173.0751  191.8877 H        48        0    0.0000
    770 H         110.3221  172.9456  190.3075 H        48        0    0.0000
    771 H         111.4131  176.1897  191.8547 H        48        0    0.0000
    772 H         109.9228  175.3423  191.4559 H        48        0    0.0000
    773 H         109.6774  176.3821  189.3824 H        48        0    0.0000
    774 H         111.5221  178.6322  190.0443 H        48        0    0.0000
    775 H         109.8057  178.6535  189.6596 H        48        0    0.0000
    776 C         111.9918  176.4888  193.8164 C.3      49        0    0.0000
    777 C         111.2657  176.1553  192.5104 C.3      49        0    0.0000
    778 C         109.9910  177.0060  192.4897 C.3      49        0    0.0000
    779 C         110.2226  178.3470  191.7680 C.3      49        0    0.0000
    780 C         109.6674  177.1361  193.9835 C.3      49        0    0.0000
    781 C         111.0287  177.3504  194.6499 C.3      49        0    0.0000
    782 C         111.0058  177.0121  196.1448 C.3      49        0    0.0000
    783 H         112.2752  175.5626  194.3291 H        49        0    0.0000
    784 H         112.9155  177.0428  193.6133 H        49        0    0.0000
    785 H         110.9918  175.0927  192.5197 H        49        0    0.0000
    786 H         111.9046  176.3134  191.6356 H        49        0    0.0000
    787 H         109.1880  176.4603  191.9777 H        49        0    0.0000
    788 H         111.0595  178.8723  192.2438 H        49        0    0.0000
    789 H         109.3501  179.0028  191.8588 H        49        0    0.0000
    790 H         109.2125  176.2024  194.3393 H        49        0    0.0000
    791 H         108.9698  177.9476  194.2113 H        49        0    0.0000
    792 H         111.3128  178.4050  194.5266 H        49        0    0.0000
    793 H         110.9581  177.9297  196.7427 H        49        0    0.0000
    794 H         111.9379  176.5031  196.4172 H        49        0    0.0000
    795 C         109.8077  176.0898  196.5110 C.3      50        0    0.0000
    796 C         109.2869  176.2823  197.9425 C.3      50        0    0.0000
    797 H         108.9942  176.3365  195.8167 H        50        0    0.0000
    798 H         110.0753  175.0437  196.3212 H        50        0    0.0000
    799 H         109.9507  175.8089  198.6754 H        50        0    0.0000
    800 H         109.2904  177.3572  198.1644 H        50        0    0.0000
    801 C         105.5099  177.0426  200.8853 C.3      51        0    0.0000
    802 C         106.3769  177.3189  199.6665 C.3      51        0    0.0000
    803 C         107.2504  176.0629  199.5557 C.3      51        0    0.0000
    804 C         107.8173  175.7803  198.1587 C.3      51        0    0.0000
    805 C         106.4195  174.9209  200.1763 C.3      51        0    0.0000
    806 C         105.1294  175.5712  200.7088 C.3      51        0    0.0000
    807 C         104.5889  174.9557  202.0018 C.3      51        0    0.0000
    808 H         106.0881  177.1944  201.8049 H        51        0    0.0000
    809 H         104.6325  177.6956  200.9205 H        51        0    0.0000
    810 H         105.7387  177.4572  198.7871 H        51        0    0.0000
    811 H         106.9779  178.2254  199.7897 H        51        0    0.0000
    812 H         108.1169  176.2151  200.2164 H        51        0    0.0000
    813 H         107.7848  174.7000  197.9735 H        51        0    0.0000
    814 H         107.1690  176.2472  197.4078 H        51        0    0.0000
    815 H         106.9962  174.4606  200.9883 H        51        0    0.0000
    816 H         106.1847  174.1239  199.4631 H        51        0    0.0000
    817 H         104.3627  175.5057  199.9231 H        51        0    0.0000
    818 H         104.1265  175.7304  202.6250 H        51        0    0.0000
    819 H         103.7990  174.2355  201.7577 H        51        0    0.0000
    820 C         105.0476  171.0892  203.5360 C.3      52        0    0.0000
    821 C         104.1801  172.3484  203.6131 C.3      52        0    0.0000
    822 C         105.1064  173.4915  204.0422 C.3      52        0    0.0000
    823 C         105.6909  174.2286  202.8224 C.3      52        0    0.0000
    824 C         106.1459  172.7581  204.8993 C.3      52        0    0.0000
    825 C         106.4132  171.4557  204.1406 C.3      52        0    0.0000
    826 C         107.0216  170.3723  205.0382 C.3      52        0    0.0000
    827 H         104.5582  170.2693  204.0739 H        52        0    0.0000
    828 H         105.1687  170.7677  202.4952 H        52        0    0.0000
    829 H         103.4090  172.2000  204.3797 H        52        0    0.0000
    830 H         103.6601  172.5449  202.6699 H        52        0    0.0000
    831 H         104.5503  174.2092  204.6589 H        52        0    0.0000
    832 H         106.1858  173.5027  202.1660 H        52        0    0.0000
    833 H         106.4576  174.9501  203.1241 H        52        0    0.0000
    834 H         105.7159  172.5420  205.8861 H        52        0    0.0000
    835 H         107.0636  173.3315  205.0606 H        52        0    0.0000
    836 H         107.1095  171.6704  203.3178 H        52        0    0.0000
    837 H         108.1163  170.4118  204.9950 H        52        0    0.0000
    838 H         106.7242  169.3839  204.6685 H        52        0    0.0000
    839 C         106.5538  170.5147  206.5151 C.3      53        0    0.0000
    840 C         106.7672  169.2516  207.3616 C.3      53        0    0.0000
    841 H         105.4776  170.7281  206.4874 H        53        0    0.0000
    842 H         107.0347  171.3873  206.9725 H        53        0    0.0000
    843 H         106.2495  168.4193  206.8678 H        53        0    0.0000
    844 H         107.8277  168.9774  207.4087 H        53        0    0.0000
    845 C         108.0006  166.8716  210.9998 C.3      54        0    0.0000
    846 C         107.9627  167.8652  209.8487 C.3      54        0    0.0000
    847 C         106.4641  168.0987  209.6468 C.3      54        0    0.0000
    848 C         106.1823  169.3511  208.8130 C.3      54        0    0.0000
    849 C         105.9036  168.1399  211.0803 C.3      54        0    0.0000
    850 C         106.9282  167.3971  211.9624 C.3      54        0    0.0000
    851 C         106.3384  166.3531  212.9192 C.3      54        0    0.0000
    852 H         108.9876  166.8296  211.4709 H        54        0    0.0000
    853 H         107.7650  165.8693  210.6261 H        54        0    0.0000
    854 H         108.4734  168.7937  210.1317 H        54        0    0.0000
    855 H         108.4446  167.4691  208.9497 H        54        0    0.0000
    856 H         106.0437  167.2182  209.1393 H        54        0    0.0000
    857 H         105.1024  169.5322  208.7556 H        54        0    0.0000
    858 H         106.6216  170.2239  209.3105 H        54        0    0.0000
    859 H         105.8063  169.1723  211.4387 H        54        0    0.0000
    860 H         104.9032  167.6960  211.1171 H        54        0    0.0000
    861 H         107.4090  168.1590  212.5939 H        54        0    0.0000
    862 H         107.0962  165.5881  213.1259 H        54        0    0.0000
    863 H         105.5057  165.8434  212.4201 H        54        0    0.0000
    864 C         103.6696  164.6334  216.3660 C.3      55        0    0.0000
    865 C         104.0190  166.0358  215.8920 C.3      55        0    0.0000
    866 C         105.4264  165.8751  215.3034 C.3      55        0    0.0000
    867 C         105.8289  166.9343  214.2694 C.3      55        0    0.0000
    868 C         105.5119  164.4126  214.8204 C.3      55        0    0.0000
    869 C         104.1837  163.7491  215.2281 C.3      55        0    0.0000
    870 C         104.3032  162.2816  215.6466 C.3      55        0    0.0000
    871 H         104.1884  164.4101  217.3062 H        55        0    0.0000
    872 H         102.5946  164.5126  216.5307 H        55        0    0.0000
    873 H         103.2913  166.3601  215.1403 H        55        0    0.0000
    874 H         103.9990  166.7609  216.7117 H        55        0    0.0000
    875 H         106.1366  165.9718  216.1381 H        55        0    0.0000
    876 H         104.9670  167.5820  214.0696 H        55        0    0.0000
    877 H         106.6099  167.5740  214.6973 H        55        0    0.0000
    878 H         106.3652  163.9251  215.3083 H        55        0    0.0000
    879 H         105.6721  164.3254  213.7406 H        55        0    0.0000
    880 H         103.4845  163.8337  214.3835 H        55        0    0.0000
    881 H         104.1489  162.1827  216.7276 H        55        0    0.0000
    882 H         103.5098  161.7007  215.1612 H        55        0    0.0000
    883 C         105.6779  161.6631  215.2668 C.3      56        0    0.0000
    884 C         106.5171  161.2195  216.4736 C.3      56        0    0.0000
    885 H         106.2373  162.4400  214.7301 H        56        0    0.0000
    886 H         105.5294  160.8387  214.5595 H        56        0    0.0000
    887 H         106.3953  161.9682  217.2667 H        56        0    0.0000
    888 H         106.1563  160.2684  216.8823 H        56        0    0.0000
    889 C         109.1970  161.9425  212.7452 C.3      57        0    0.0000
    890 C         108.0117  161.8713  213.7110 C.3      57        0    0.0000
    891 C         108.3292  160.7492  214.7157 C.3      57        0    0.0000
    892 C         108.0538  161.1188  216.1784 C.3      57        0    0.0000
    893 C         109.8040  160.4184  214.4652 C.3      57        0    0.0000
    894 C         110.0037  160.6580  212.9648 C.3      57        0    0.0000
    895 C         109.5061  159.4771  212.1100 C.3      57        0    0.0000
    896 H         108.8714  162.0881  211.7108 H        57        0    0.0000
    897 H         109.8182  162.8073  213.0116 H        57        0    0.0000
    898 H         107.8616  162.8439  214.1926 H        57        0    0.0000
    899 H         107.0900  161.6338  213.1670 H        57        0    0.0000
    900 H         107.7312  159.8666  214.4473 H        57        0    0.0000
    901 H         108.4845  160.3524  216.8339 H        57        0    0.0000
    902 H         108.5433  162.0659  216.4328 H        57        0    0.0000
    903 H         110.0525  159.3965  214.7693 H        57        0    0.0000
    904 H         110.4502  161.0998  215.0336 H        57        0    0.0000
    905 H         111.0669  160.8356  212.7588 H        57        0    0.0000
    906 H         109.2796  159.7969  211.0868 H        57        0    0.0000
    907 H         108.5740  159.0870  212.5356 H        57        0    0.0000
    908 C         110.5425  158.3167  212.0690 C.3      58        0    0.0000
    909 C         111.0104  157.9479  210.6539 C.3      58        0    0.0000
    910 H         111.4173  158.6530  212.6400 H        58        0    0.0000
    911 H         110.1406  157.4437  212.5965 H        58        0    0.0000
    912 H         111.1567  156.8662  210.5515 H        58        0    0.0000
    913 H         110.2158  158.2251  209.9495 H        58        0    0.0000
    914 C         114.7330  156.4921  210.1250 C.3      59        0    0.0000
    915 C         113.7339  156.8719  211.2213 C.3      59        0    0.0000
    916 C         113.5087  158.3833  211.1026 C.3      59        0    0.0000
    917 C         112.3060  158.7021  210.1945 C.3      59        0    0.0000
    918 C         114.8596  158.8678  210.5612 C.3      59        0    0.0000
    919 C         115.2570  157.8093  209.5292 C.3      59        0    0.0000
    920 C         116.7612  157.8187  209.2339 C.3      59        0    0.0000
    921 H         115.5341  155.8776  210.5513 H        59        0    0.0000
    922 H         114.2436  155.8937  209.3481 H        59        0    0.0000
    923 H         114.1796  156.6479  212.1987 H        59        0    0.0000
    924 H         112.8089  156.2906  211.1506 H        59        0    0.0000
    925 H         113.3273  158.8114  212.0968 H        59        0    0.0000
    926 H         112.5379  158.3934  209.1680 H        59        0    0.0000
    927 H         112.1089  159.7789  210.1597 H        59        0    0.0000
    928 H         115.5907  158.8942  211.3798 H        59        0    0.0000
    929 H         114.8220  159.8698  210.1234 H        59        0    0.0000
    930 H         114.7089  158.0101  208.5979 H        59        0    0.0000
    931 H         117.0885  158.8267  208.9540 H        59        0    0.0000
    932 H         116.9679  157.1676  208.3763 H        59        0    0.0000
    933 C         121.1044  155.8994  210.4367 C.3      60        0    0.0000
    934 C         119.8780  156.3617  211.2084 C.3      60        0    0.0000
    935 C         119.0964  157.1872  210.1785 C.3      60        0    0.0000
    936 C         117.5928  157.3208  210.4508 C.3      60        0    0.0000
    937 C         119.4701  156.5988  208.8023 C.3      60        0    0.0000
    938 C         120.5260  155.5118  209.0742 C.3      60        0    0.0000
    939 C         121.6102  155.3896  208.0006 C.3      60        0    0.0000
    940 H         121.8252  156.7207  210.3417 H        60        0    0.0000
    941 H         121.6049  155.0593  210.9279 H        60        0    0.0000
    942 H         119.3125  155.4895  211.5538 H        60        0    0.0000
    943 H         120.1482  156.9549  212.0877 H        60        0    0.0000
    944 H         119.5077  158.2072  210.2056 H        60        0    0.0000
    945 H         117.2010  156.3473  210.7688 H        60        0    0.0000
    946 H         117.4406  158.0099  211.2900 H        60        0    0.0000
    947 H         119.8772  157.3985  208.1710 H        60        0    0.0000
    948 H         118.6118  156.1788  208.2673 H        60        0    0.0000
    949 H         120.0067  154.5484  209.1821 H        60        0    0.0000
    950 H         121.5653  154.4010  207.5285 H        60        0    0.0000
    951 H         121.4210  156.1249  207.2094 H        60        0    0.0000
    952 C         125.7521  155.2207  205.9771 C.3      61        0    0.0000
    953 C         124.2850  155.4450  206.3530 C.3      61        0    0.0000
    954 C         124.1110  154.8764  207.7674 C.3      61        0    0.0000
    955 C         123.0391  155.6224  208.5668 C.3      61        0    0.0000
    956 C         125.5234  154.9659  208.3549 C.3      61        0    0.0000
    957 C         126.4034  154.5259  207.1801 C.3      61        0    0.0000
    958 C         127.8857  154.8812  207.3251 C.3      61        0    0.0000
    959 H         125.8446  154.6094  205.0730 H        61        0    0.0000
    960 H         126.2266  156.1866  205.7663 H        61        0    0.0000
    961 H         123.6106  154.9510  205.6453 H        61        0    0.0000
    962 H         124.0600  156.5178  206.3212 H        61        0    0.0000
    963 H         123.8346  153.8157  207.6786 H        61        0    0.0000
    964 H         123.2526  156.6977  208.5431 H        61        0    0.0000
    965 H         123.0686  155.3174  209.6194 H        61        0    0.0000
    966 H         125.6465  154.3132  209.2250 H        61        0    0.0000
    967 H         125.7583  155.9938  208.6583 H        61        0    0.0000
    968 H         126.2949  153.4394  207.0483 H        61        0    0.0000
    969 H         128.1345  155.0517  208.3791 H        61        0    0.0000
    970 H         128.0859  155.8212  206.7971 H        61        0    0.0000
    971 C         128.8166  153.7810  206.7455 C.3      62        0    0.0000
    972 C         130.2617  153.8522  207.2592 C.3      62        0    0.0000
    973 H         128.3939  152.8152  207.0508 H        62        0    0.0000
    974 H         128.7809  153.8064  205.6501 H        62        0    0.0000
    975 H         130.7133  154.8282  207.0458 H        62        0    0.0000
    976 H         130.2402  153.7487  208.3517 H        62        0    0.0000
    977 C         129.4944  149.6736  205.5402 C.3      63        0    0.0000
    978 C         129.3193  151.0879  206.0913 C.3      63        0    0.0000
    979 C         130.5204  151.9084  205.5902 C.3      63        0    0.0000
    980 C         131.1885  152.7107  206.7146 C.3      63        0    0.0000
    981 C         131.4447  150.8796  204.9208 C.3      63        0    0.0000
    982 C         130.5041  149.7879  204.3952 C.3      63        0    0.0000
    983 C         129.8175  150.1353  203.0616 C.3      63        0    0.0000
    984 H         129.9130  149.0349  206.3285 H        63        0    0.0000
    985 H         128.5414  149.2294  205.2364 H        63        0    0.0000
    986 H         129.2443  151.0654  207.1841 H        63        0    0.0000
    987 H         128.3894  151.5293  205.7138 H        63        0    0.0000
    988 H         130.1559  152.6044  204.8216 H        63        0    0.0000
    989 H         132.1355  153.1389  206.3661 H        63        0    0.0000
    990 H         131.4323  152.0368  207.5447 H        63        0    0.0000
    991 H         132.0605  151.3304  204.1364 H        63        0    0.0000
    992 H         132.1257  150.4405  205.6615 H        63        0    0.0000
    993 H         131.0477  148.8407  204.2859 H        63        0    0.0000
    994 H         129.0088  150.8593  203.2078 H        63        0    0.0000
    995 H         129.3567  149.2306  202.6466 H        63        0    0.0000
    996 C         133.5468  150.4725  204.6147 C.3      64        0    0.0000
    997 C         132.3502  151.1926  203.9875 C.3      64        0    0.0000
    998 C         132.2629  150.6999  202.5371 C.3      64        0    0.0000
    999 C         130.8244  150.6861  202.0126 C.3      64        0    0.0000
   1000 C         132.9343  149.3237  202.5958 C.3      64        0    0.0000
   1001 C         134.1327  149.5747  203.5171 C.3      64        0    0.0000
   1002 C         134.7777  148.3072  204.0845 C.3      64        0    0.0000
   1003 H         134.2947  151.1837  204.9812 H        64        0    0.0000
   1004 H         133.2083  149.8843  205.4761 H        64        0    0.0000
   1005 H         132.4726  152.2803  204.0261 H        64        0    0.0000
   1006 H         131.4411  150.9478  204.5499 H        64        0    0.0000
   1007 H         132.8779  151.3638  201.9121 H        64        0    0.0000
   1008 H         130.7722  150.0576  201.1155 H        64        0    0.0000
   1009 H         130.5205  151.6950  201.7097 H        64        0    0.0000
   1010 H         133.2455  148.9779  201.6049 H        64        0    0.0000
   1011 H         132.2579  148.5746  203.0262 H        64        0    0.0000
   1012 H         134.8847  150.1561  202.9640 H        64        0    0.0000
   1013 H         134.5239  147.4404  203.4631 H        64        0    0.0000
   1014 H         134.3705  148.1099  205.0835 H        64        0    0.0000
   1015 C         136.3222  148.4291  204.1960 C.3      65        0    0.0000
   1016 C         137.0813  147.1729  203.7453 C.3      65        0    0.0000
   1017 H         136.5506  148.6032  205.2553 H        65        0    0.0000
   1018 H         136.6629  149.3177  203.6518 H        65        0    0.0000
   1019 H         137.2783  146.5575  204.6325 H        65        0    0.0000
   1020 H         136.4737  146.5611  203.0682 H        65        0    0.0000
   1021 C         139.6758  144.7160  200.9093 C.3      66        0    0.0000
   1022 C         138.5955  145.1908  201.8841 C.3      66        0    0.0000
   1023 C         139.2737  146.1871  202.8415 C.3      66        0    0.0000
   1024 C         138.4713  147.4714  203.0838 C.3      66        0    0.0000
   1025 C         140.6379  146.4634  202.2016 C.3      66        0    0.0000
   1026 C         141.0160  145.1464  201.5153 C.3      66        0    0.0000
   1027 C         141.5936  144.1143  202.5023 C.3      66        0    0.0000
   1028 H         139.6043  143.6418  200.7136 H        66        0    0.0000
   1029 H         139.5344  145.2279  199.9487 H        66        0    0.0000
   1030 H         137.7599  145.6336  201.3309 H        66        0    0.0000
   1031 H         138.1948  144.3430  202.4520 H        66        0    0.0000
   1032 H         139.4437  145.6807  203.8024 H        66        0    0.0000
   1033 H         139.0381  148.1337  203.7489 H        66        0    0.0000
   1034 H         138.3254  148.0150  202.1432 H        66        0    0.0000
   1035 H         141.3793  146.7864  202.9397 H        66        0    0.0000
   1036 H         140.5527  147.2572  201.4481 H        66        0    0.0000
   1037 H         141.7482  145.3421  200.7215 H        66        0    0.0000
   1038 H         141.2066  143.1102  202.2964 H        66        0    0.0000
   1039 H         141.2832  144.3724  203.5218 H        66        0    0.0000
   1040 C         145.3089  142.0011  200.3492 C.3      67        0    0.0000
   1041 C         143.9110  142.1843  200.9383 C.3      67        0    0.0000
   1042 C         143.6865  143.6999  201.0780 C.3      67        0    0.0000
   1043 C         143.1490  144.0847  202.4626 C.3      67        0    0.0000
   1044 C         145.0457  144.3297  200.7367 C.3      67        0    0.0000
   1045 C         145.6945  143.3544  199.7464 C.3      67        0    0.0000
   1046 C         145.1914  143.4981  198.2984 C.3      67        0    0.0000
   1047 H         146.0063  141.7551  201.1602 H        67        0    0.0000
   1048 H         145.3474  141.1778  199.6290 H        67        0    0.0000
   1049 H         143.8253  141.6508  201.8913 H        67        0    0.0000
   1050 H         143.1572  141.7615  200.2638 H        67        0    0.0000
   1051 H         142.9574  144.0043  200.3138 H        67        0    0.0000
   1052 H         143.5445  145.0607  202.7670 H        67        0    0.0000
   1053 H         143.5006  143.3559  203.2028 H        67        0    0.0000
   1054 H         144.9397  145.3424  200.3356 H        67        0    0.0000
   1055 H         145.6711  144.3966  201.6365 H        67        0    0.0000
   1056 H         146.7859  143.4688  199.7629 H        67        0    0.0000
   1057 H         144.1423  143.1959  198.2103 H        67        0    0.0000
   1058 H         145.7662  142.8272  197.6484 H        67        0    0.0000
   1059 C         145.3609  144.9479  197.7625 C.3      68        0    0.0000
   1060 C         146.1513  145.0392  196.4493 C.3      68        0    0.0000
   1061 H         144.3515  145.3383  197.5802 H        68        0    0.0000
   1062 H         145.8055  145.5797  198.5404 H        68        0    0.0000
   1063 H         145.9960  144.1497  195.8276 H        68        0    0.0000
   1064 H         145.7646  145.8928  195.8779 H        68        0    0.0000
   1065 C         150.5453  145.3804  198.2592 C.3      69        0    0.0000
   1066 C         149.6170  144.2164  197.9022 C.3      69        0    0.0000
   1067 C         148.1848  144.7528  198.0033 C.3      69        0    0.0000
   1068 C         147.6874  145.2848  196.6460 C.3      69        0    0.0000
   1069 C         148.3188  145.8226  199.0944 C.3      69        0    0.0000
   1070 C         149.6500  146.5135  198.7876 C.3      69        0    0.0000
   1071 C         150.2159  147.2552  200.0040 C.3      69        0    0.0000
   1072 H         151.2839  145.0511  198.9988 H        69        0    0.0000
   1073 H         151.0990  145.7169  197.3752 H        69        0    0.0000
   1074 H         149.7561  143.4147  198.6385 H        69        0    0.0000
   1075 H         149.8512  143.7931  196.9201 H        69        0    0.0000
   1076 H         147.5117  143.9544  198.3410 H        69        0    0.0000
   1077 H         148.2238  144.7710  195.8391 H        69        0    0.0000
   1078 H         147.9038  146.3526  196.5344 H        69        0    0.0000
   1079 H         148.3608  145.3356  200.0775 H        69        0    0.0000
   1080 H         147.4867  146.5326  199.1161 H        69        0    0.0000
   1081 H         149.4872  147.2341  197.9739 H        69        0    0.0000
   1082 H         149.4154  147.7832  200.5350 H        69        0    0.0000
   1083 H         150.9296  148.0161  199.6667 H        69        0    0.0000
   1084 C         152.9321  144.0975  198.6016 C.3      70        0    0.0000
   1085 C         151.9448  145.2305  198.8440 C.3      70        0    0.0000
   1086 C         152.0801  145.4857  200.3488 C.3      70        0    0.0000
   1087 C         150.9416  146.2894  200.9843 C.3      70        0    0.0000
   1088 C         152.3453  144.1016  200.9727 C.3      70        0    0.0000
   1089 C         152.6852  143.1680  199.7944 C.3      70        0    0.0000
   1090 C         153.7863  142.1380  200.0644 C.3      70        0    0.0000
   1091 H         152.7524  143.5962  197.6456 H        70        0    0.0000
   1092 H         153.9538  144.4928  198.5918 H        70        0    0.0000
   1093 H         152.1885  146.1187  198.2528 H        70        0    0.0000
   1094 H         150.9348  144.9062  198.5702 H        70        0    0.0000
   1095 H         152.9972  146.0771  200.4907 H        70        0    0.0000
   1096 H         150.2045  145.5950  201.4048 H        70        0    0.0000
   1097 H         151.3394  146.8726  201.8233 H        70        0    0.0000
   1098 H         151.4796  143.7062  201.5151 H        70        0    0.0000
   1099 H         153.1581  144.1789  201.7029 H        70        0    0.0000
   1100 H         151.7715  142.5971  199.5700 H        70        0    0.0000
   1101 H         153.6697  141.7478  201.0824 H        70        0    0.0000
   1102 H         153.6563  141.2879  199.3842 H        70        0    0.0000
   1103 C         155.2341  142.6912  199.9031 C.3      71        0    0.0000
   1104 C         156.3069  141.6013  199.7673 C.3      71        0    0.0000
   1105 H         155.4531  143.2738  200.8070 H        71        0    0.0000
   1106 H         155.2698  143.3931  199.0616 H        71        0    0.0000
   1107 H         156.7460  141.4305  200.7585 H        71        0    0.0000
   1108 H         155.8688  140.6477  199.4501 H        71        0    0.0000
   1109 C         157.4874  141.9850  198.8092 C.3      72        0    0.0000
   1110 C         158.4232  140.8152  198.4727 C.3      72        0    0.0000
   1111 H         158.0762  142.7547  199.3245 H        72        0    0.0000
   1112 H         157.0890  142.4513  197.9005 H        72        0    0.0000
   1113 H         159.1336  140.6984  199.3011 H        72        0    0.0000
   1114 H         157.8708  139.8712  198.3981 H        72        0    0.0000
   1115 C         162.2545  143.2012  197.9780 C.3      73        0    0.0000
   1116 C         161.0484  142.3687  198.4206 C.3      73        0    0.0000
   1117 C         160.0903  142.3282  197.2229 C.3      73        0    0.0000
   1118 C         159.2742  141.0335  197.1739 C.3      73        0    0.0000
   1119 C         161.0213  142.5419  196.0248 C.3      73        0    0.0000
   1120 C         161.9750  143.6290  196.5313 C.3      73        0    0.0000
   1121 C         163.2591  143.7837  195.7116 C.3      73        0    0.0000
   1122 H         162.3979  144.0734  198.6248 H        73        0    0.0000
   1123 H         163.1638  142.5921  198.0477 H        73        0    0.0000
   1124 H         160.5611  142.8058  199.2988 H        73        0    0.0000
   1125 H         161.3825  141.3628  198.7015 H        73        0    0.0000
   1126 H         159.4115  143.1903  197.2978 H        73        0    0.0000
   1127 H         159.9541  140.1814  197.0553 H        73        0    0.0000
   1128 H         158.6125  141.0339  196.2999 H        73        0    0.0000
   1129 H         160.4732  142.8618  195.1329 H        73        0    0.0000
   1130 H         161.5676  141.6216  195.7827 H        73        0    0.0000
   1131 H         161.4343  144.5864  196.5555 H        73        0    0.0000
   1132 H         163.3922  142.9219  195.0472 H        73        0    0.0000
   1133 H         164.1214  143.7969  196.3889 H        73        0    0.0000
   1134 C         160.2369  146.8415  196.3472 C.3      74        0    0.0000
   1135 C         161.2419  145.6982  196.3636 C.3      74        0    0.0000
   1136 C         162.3192  146.1763  195.3845 C.3      74        0    0.0000
   1137 C         163.2703  145.0905  194.8720 C.3      74        0    0.0000
   1138 C         161.5598  146.9617  194.2974 C.3      74        0    0.0000
   1139 C         160.1432  147.1929  194.8588 C.3      74        0    0.0000
   1140 C         159.5224  148.5572  194.5433 C.3      74        0    0.0000
   1141 H         159.2691  146.5409  196.7605 H        74        0    0.0000
   1142 H         160.6173  147.6771  196.9449 H        74        0    0.0000
   1143 H         161.6454  145.5229  197.3656 H        74        0    0.0000
   1144 H         160.7580  144.7753  196.0254 H        74        0    0.0000
   1145 H         162.9406  146.9059  195.9255 H        74        0    0.0000
   1146 H         163.0088  144.8456  193.8357 H        74        0    0.0000
   1147 H         164.2918  145.4884  194.8534 H        74        0    0.0000
   1148 H         161.4933  146.4190  193.3483 H        74        0    0.0000
   1149 H         162.0903  147.8956  194.0826 H        74        0    0.0000
   1150 H         159.4918  146.4380  194.3932 H        74        0    0.0000
   1151 H         158.4841  148.4124  194.2220 H        74        0    0.0000
   1152 H         159.4875  149.1560  195.4611 H        74        0    0.0000
   1153 C         160.2776  149.3661  193.4463 C.3      75        0    0.0000
   1154 C         159.8798  150.8475  193.3786 C.3      75        0    0.0000
   1155 H         161.3461  149.3114  193.6915 H        75        0    0.0000
   1156 H         160.1537  148.8750  192.4740 H        75        0    0.0000
   1157 H         158.8761  150.9721  192.9555 H        75        0    0.0000
   1158 H         159.8385  151.2362  194.4042 H        75        0    0.0000
   1159 C         163.6175  153.0814  194.6678 C.3      76        0    0.0000
   1160 C         162.4168  152.1384  194.6091 C.3      76        0    0.0000
   1161 C         162.3216  151.6353  193.1583 C.3      76        0    0.0000
   1162 C         160.8987  151.7457  192.5950 C.3      76        0    0.0000
   1163 C         163.3651  152.4599  192.3892 C.3      76        0    0.0000
   1164 C         164.4538  152.7795  193.4216 C.3      76        0    0.0000
   1165 C         165.4478  151.6296  193.6664 C.3      76        0    0.0000
   1166 H         163.2578  154.1172  194.6192 H        76        0    0.0000
   1167 H         164.1774  152.9773  195.6025 H        76        0    0.0000
   1168 H         161.5094  152.6541  194.9421 H        76        0    0.0000
   1169 H         162.5697  151.2878  195.2839 H        76        0    0.0000
   1170 H         162.6304  150.5805  193.1464 H        76        0    0.0000
   1171 H         160.8876  151.4756  191.5326 H        76        0    0.0000
   1172 H         160.5633  152.7877  192.6601 H        76        0    0.0000
   1173 H         163.7467  151.9253  191.5139 H        76        0    0.0000
   1174 H         162.9215  153.3989  192.0331 H        76        0    0.0000
   1175 H         165.0075  153.6783  193.1214 H        76        0    0.0000
   1176 H         165.5476  150.9948  192.7794 H        76        0    0.0000
   1177 H         165.0662  150.9876  194.4696 H        76        0    0.0000
   1178 C         169.1537  154.1173  191.9491 C.3      77        0    0.0000
   1179 C         168.7422  153.7511  193.3772 C.3      77        0    0.0000
   1180 C         167.2389  153.4239  193.3319 C.3      77        0    0.0000
   1181 C         166.8496  152.1503  194.0926 C.3      77        0    0.0000
   1182 C         166.9125  153.3338  191.8377 C.3      77        0    0.0000
   1183 C         167.8509  154.3486  191.1760 C.3      77        0    0.0000
   1184 C         167.3279  155.7932  191.2894 C.3      77        0    0.0000
   1185 H         169.8371  154.9715  191.9285 H        77        0    0.0000
   1186 H         169.6884  153.2670  191.5067 H        77        0    0.0000
   1187 H         169.3493  152.9140  193.7392 H        77        0    0.0000
   1188 H         168.9190  154.5956  194.0536 H        77        0    0.0000
   1189 H         166.6873  154.2776  193.7507 H        77        0    0.0000
   1190 H         167.5887  151.3660  193.8898 H        77        0    0.0000
   1191 H         166.8657  152.3301  195.1737 H        77        0    0.0000
   1192 H         165.8558  153.5370  191.6357 H        77        0    0.0000
   1193 H         167.1351  152.3281  191.4581 H        77        0    0.0000
   1194 H         167.9845  154.0907  190.1177 H        77        0    0.0000
   1195 H         167.7083  156.2820  192.1931 H        77        0    0.0000
   1196 H         166.2346  155.7791  191.3710 H        77        0    0.0000
   1197 C         170.4727  154.9607  188.0744 C.3      78        0    0.0000
   1198 C         169.3572  154.8789  189.1051 C.3      78        0    0.0000
   1199 C         169.1017  156.3457  189.4741 C.3      78        0    0.0000
   1200 C         167.7094  156.6450  190.0440 C.3      78        0    0.0000
   1201 C         169.4967  157.1642  188.2277 C.3      78        0    0.0000
   1202 C         170.0542  156.1520  187.2103 C.3      78        0    0.0000
   1203 C         171.2082  156.6763  186.3522 C.3      78        0    0.0000
   1204 H         171.4336  155.1485  188.5688 H        78        0    0.0000
   1205 H         170.5613  154.0381  187.4925 H        78        0    0.0000
   1206 H         168.4771  154.4067  188.6553 H        78        0    0.0000
   1207 H         169.6484  154.2830  189.9758 H        78        0    0.0000
   1208 H         169.8221  156.6085  190.2631 H        78        0    0.0000
   1209 H         167.6566  157.7061  190.3153 H        78        0    0.0000
   1210 H         166.9594  156.4834  189.2607 H        78        0    0.0000
   1211 H         170.2578  157.9017  188.5116 H        78        0    0.0000
   1212 H         168.6589  157.7231  187.7976 H        78        0    0.0000
   1213 H         169.2288  155.8311  186.5581 H        78        0    0.0000
   1214 H         172.0646  155.9942  186.4126 H        78        0    0.0000
   1215 H         170.8971  156.6983  185.3010 H        78        0    0.0000
   1216 C         171.9158  159.5365  183.2579 C.3      79        0    0.0000
   1217 C         171.1211  158.8148  184.3373 C.3      79        0    0.0000
   1218 C         171.9722  159.0340  185.5924 C.3      79        0    0.0000
   1219 C         171.6603  158.1040  186.7688 C.3      79        0    0.0000
   1220 C         173.4327  159.0162  185.1004 C.3      79        0    0.0000
   1221 C         173.3598  159.1262  183.5648 C.3      79        0    0.0000
   1222 C         174.4420  159.9921  182.9127 C.3      79        0    0.0000
   1223 H         171.6073  159.2344  182.2522 H        79        0    0.0000
   1224 H         171.7663  160.6180  183.3491 H        79        0    0.0000
   1225 H         170.1130  159.2266  184.4470 H        79        0    0.0000
   1226 H         171.0291  157.7534  184.0818 H        79        0    0.0000
   1227 H         171.7687  160.0578  185.9409 H        79        0    0.0000
   1228 H         172.5498  158.0203  187.4046 H        79        0    0.0000
   1229 H         170.8743  158.5566  187.3849 H        79        0    0.0000
   1230 H         173.9639  158.0990  185.3768 H        79        0    0.0000
   1231 H         173.9841  159.8431  185.5608 H        79        0    0.0000
   1232 H         173.4932  158.1083  183.1684 H        79        0    0.0000
   1233 H         174.5319  160.9324  183.4695 H        79        0    0.0000
   1234 H         175.4088  159.4819  182.9978 H        79        0    0.0000
   1235 C         174.1804  160.3219  181.4123 C.3      80        0    0.0000
   1236 C         175.0732  161.4395  180.8543 C.3      80        0    0.0000
   1237 H         173.1361  160.6512  181.3377 H        80        0    0.0000
   1238 H         174.2643  159.4077  180.8130 H        80        0    0.0000
   1239 H         175.2564  162.1627  181.6592 H        80        0    0.0000
   1240 H         176.0534  161.0531  180.5511 H        80        0    0.0000
   1241 C         176.4633  165.1578  178.4197 C.3      81        0    0.0000
   1242 C         176.3590  163.8144  179.1464 C.3      81        0    0.0000
   1243 C         174.9040  163.6915  179.6175 C.3      81        0    0.0000
   1244 C         174.4293  162.2366  179.6674 C.3      81        0    0.0000
   1245 C         174.1413  164.5783  178.6276 C.3      81        0    0.0000
   1246 C         175.0670  165.7907  178.4820 C.3      81        0    0.0000
   1247 C         174.7739  166.6749  177.2667 C.3      81        0    0.0000
   1248 H         177.2106  165.8084  178.8866 H        81        0    0.0000
   1249 H         176.7814  164.9888  177.3839 H        81        0    0.0000
   1250 H         177.0518  163.7626  179.9932 H        81        0    0.0000
   1251 H         176.6274  163.0048  178.4572 H        81        0    0.0000
   1252 H         174.8292  164.1393  180.6192 H        81        0    0.0000
   1253 H         174.6939  161.7370  178.7278 H        81        0    0.0000
   1254 H         173.3369  162.1956  179.7505 H        81        0    0.0000
   1255 H         173.1544  164.8605  179.0078 H        81        0    0.0000
   1256 H         174.0077  164.0682  177.6654 H        81        0    0.0000
   1257 H         175.0042  166.3923  179.4006 H        81        0    0.0000
   1258 H         174.7568  166.0707  176.3521 H        81        0    0.0000
   1259 H         175.5826  167.4059  177.1476 H        81        0    0.0000
   1260 C         173.4305  167.4425  177.4046 C.3      82        0    0.0000
   1261 C         173.2950  168.6389  176.4519 C.3      82        0    0.0000
   1262 H         172.6316  166.7276  177.1692 H        82        0    0.0000
   1263 H         173.2831  167.7448  178.4480 H        82        0    0.0000
   1264 H         174.2259  168.8176  175.9011 H        82        0    0.0000
   1265 H         172.5301  168.3937  175.7040 H        82        0    0.0000
   1266 C         172.7243  173.0789  175.1407 C.3      83        0    0.0000
   1267 C         172.9551  171.5657  175.1355 C.3      83        0    0.0000
   1268 C         173.4949  171.1980  176.5293 C.3      83        0    0.0000
   1269 C         172.8338  169.9631  177.1537 C.3      83        0    0.0000
   1270 C         173.2795  172.4620  177.3679 C.3      83        0    0.0000
   1271 C         173.4538  173.6173  176.3763 C.3      83        0    0.0000
   1272 C         174.9354  173.9444  176.1100 C.3      83        0    0.0000
   1273 H         173.0434  173.5428  174.2025 H        83        0    0.0000
   1274 H         171.6490  173.2718  175.2454 H        83        0    0.0000
   1275 H         172.0230  171.0453  174.8892 H        83        0    0.0000
   1276 H         173.6899  171.2945  174.3685 H        83        0    0.0000
   1277 H         174.5773  171.0246  176.4452 H        83        0    0.0000
   1278 H         173.1015  169.9057  178.2155 H        83        0    0.0000
   1279 H         171.7420  170.0477  177.1055 H        83        0    0.0000
   1280 H         173.9747  172.5175  178.2120 H        83        0    0.0000
   1281 H         172.2606  172.4806  177.7759 H        83        0    0.0000
   1282 H         172.9457  174.5111  176.7598 H        83        0    0.0000
   1283 H         175.3124  173.3933  175.2413 H        83        0    0.0000
   1284 H         175.5376  173.6320  176.9714 H        83        0    0.0000
   1285 C         177.6646  176.7673  178.3005 C.3      84        0    0.0000
   1286 C         176.7805  175.5859  177.8937 C.3      84        0    0.0000
   1287 C         175.5465  176.1808  177.1918 C.3      84        0    0.0000
   1288 C         175.1598  175.4686  175.8897 C.3      84        0    0.0000
   1289 C         175.9076  177.6526  176.9667 C.3      84        0    0.0000
   1290 C         176.7924  178.0199  178.1628 C.3      84        0    0.0000
   1291 C         175.9705  178.3275  179.4290 C.3      84        0    0.0000
   1292 H         178.0898  176.6329  179.2996 H        84        0    0.0000
   1293 H         178.5063  176.8363  177.5995 H        84        0    0.0000
   1294 H         177.3444  174.8987  177.2533 H        84        0    0.0000
   1295 H         176.4681  175.0204  178.7794 H        84        0    0.0000
   1296 H         174.6991  176.1404  177.8910 H        84        0    0.0000
   1297 H         174.2323  175.9040  175.4993 H        84        0    0.0000
   1298 H         175.9299  175.6235  175.1253 H        84        0    0.0000
   1299 H         175.0178  178.2853  176.8857 H        84        0    0.0000
   1300 H         176.4817  177.7673  176.0382 H        84        0    0.0000
   1301 H         177.4115  178.8897  177.9091 H        84        0    0.0000
   1302 H         176.6235  178.5415  180.2823 H        84        0    0.0000
   1303 H         175.3731  177.4482  179.6976 H        84        0    0.0000
   1304 C         176.5744  182.0892  177.1098 C.3      85        0    0.0000
   1305 C         176.6467  180.6503  177.6184 C.3      85        0    0.0000
   1306 C         175.1963  180.1880  177.8415 C.3      85        0    0.0000
   1307 C         174.9998  179.5242  179.2108 C.3      85        0    0.0000
   1308 C         174.3465  181.4505  177.6301 C.3      85        0    0.0000
   1309 C         175.1378  182.2939  176.6222 C.3      85        0    0.0000
   1310 C         174.9642  181.8532  175.1573 C.3      85        0    0.0000
   1311 H         176.7726  182.7716  177.9463 H        85        0    0.0000
   1312 H         177.3271  182.2926  176.3416 H        85        0    0.0000
   1313 H         177.2560  180.5966  178.5273 H        85        0    0.0000
   1314 H         177.1264  180.0078  176.8707 H        85        0    0.0000
   1315 H         174.9487  179.4630  177.0534 H        85        0    0.0000
   1316 H         173.9638  179.1844  179.3242 H        85        0    0.0000
   1317 H         175.1786  180.2637  180.0007 H        85        0    0.0000
   1318 H         173.3343  181.2117  177.2895 H        85        0    0.0000
   1319 H         174.2536  182.0090  178.5707 H        85        0    0.0000
   1320 H         174.8628  183.3522  176.7163 H        85        0    0.0000
   1321 H         174.0189  181.3194  175.0122 H        85        0    0.0000
   1322 H         175.7642  181.1503  174.8947 H        85        0    0.0000
   1323 C         178.5110  184.3638  174.1827 C.3      86        0    0.0000
   1324 C         177.4870  183.4621  174.8765 C.3      86        0    0.0000
   1325 C         176.1022  184.0742  174.5992 C.3      86        0    0.0000
   1326 C         175.0384  183.0549  174.1733 C.3      86        0    0.0000
   1327 C         176.3611  185.1321  173.5217 C.3      86        0    0.0000
   1328 C         177.7686  185.6562  173.8260 C.3      86        0    0.0000
   1329 C         177.7760  186.6929  174.9654 C.3      86        0    0.0000
   1330 H         179.3999  184.5214  174.8009 H        86        0    0.0000
   1331 H         178.8445  183.8739  173.2590 H        86        0    0.0000
   1332 H         177.5803  182.4352  174.5065 H        86        0    0.0000
   1333 H         177.6724  183.4352  175.9567 H        86        0    0.0000
   1334 H         175.7645  184.5898  175.5096 H        86        0    0.0000
   1335 H         174.0572  183.5437  174.1464 H        86        0    0.0000
   1336 H         175.2403  182.6919  173.1589 H        86        0    0.0000
   1337 H         175.6022  185.9213  173.5312 H        86        0    0.0000
   1338 H         176.3493  184.6728  172.5248 H        86        0    0.0000
   1339 H         178.1976  186.1050  172.9211 H        86        0    0.0000
   1340 H         177.9521  186.2141  175.9350 H        86        0    0.0000
   1341 H         176.7940  187.1773  175.0230 H        86        0    0.0000
   1342 C         178.8477  187.7974  174.7344 C.3      87        0    0.0000
   1343 C         178.2852  189.2259  174.7511 C.3      87        0    0.0000
   1344 H         179.5754  187.7085  175.5513 H        87        0    0.0000
   1345 H         179.3932  187.5943  173.8054 H        87        0    0.0000
   1346 H         177.3345  189.2739  175.2951 H        87        0    0.0000
   1347 H         178.9918  189.8638  175.2973 H        87        0    0.0000
   1348 C         178.1115  189.8589  173.3270 C.3      88        0    0.0000
   1349 C         178.9715  191.1087  173.0908 C.3      88        0    0.0000
   1350 H         178.4157  189.0940  172.6011 H        88        0    0.0000
   1351 H         177.0507  190.0636  173.1406 H        88        0    0.0000
   1352 H         178.4373  191.8523  172.4878 H        88        0    0.0000
   1353 H         179.1674  191.5762  174.0643 H        88        0    0.0000
   1354 C         180.1067  188.0807  169.8102 C.3      89        0    0.0000
   1355 C         179.6580  188.6919  171.1302 C.3      89        0    0.0000
   1356 C         180.2945  190.0852  171.0955 C.3      89        0    0.0000
   1357 C         180.3679  190.8082  172.4439 C.3      89        0    0.0000
   1358 C         181.6401  189.8985  170.3676 C.3      89        0    0.0000
   1359 C         181.5777  188.5005  169.7218 C.3      89        0    0.0000
   1360 C         182.2116  188.3861  168.3321 C.3      89        0    0.0000
   1361 H         179.9884  186.9927  169.8023 H        89        0    0.0000
   1362 H         179.5102  188.4938  168.9894 H        89        0    0.0000
   1363 H         178.5674  188.7398  171.2087 H        89        0    0.0000
   1364 H         180.0329  188.0881  171.9640 H        89        0    0.0000
   1365 H         179.6651  190.7072  170.4413 H        89        0    0.0000
   1366 H         180.9572  190.2031  173.1430 H        89        0    0.0000
   1367 H         180.9069  191.7542  172.3144 H        89        0    0.0000
   1368 H         182.5006  189.9514  171.0432 H        89        0    0.0000
   1369 H         181.7738  190.7008  169.6339 H        89        0    0.0000
   1370 H         182.1428  187.8230  170.3797 H        89        0    0.0000
   1371 H         181.8611  187.4640  167.8535 H        89        0    0.0000
   1372 H         181.8612  189.2173  167.7088 H        89        0    0.0000
   1373 C         183.7698  188.3864  168.3370 C.3      90        0    0.0000
   1374 C         184.3911  189.5927  169.0556 C.3      90        0    0.0000
   1375 H         184.0852  187.4767  168.8639 H        90        0    0.0000
   1376 H         184.1425  188.2987  167.3097 H        90        0    0.0000
   1377 H         184.0590  189.6500  170.0988 H        90        0    0.0000
   1378 H         185.4792  189.4510  169.0801 H        90        0    0.0000
   1379 C         184.8975  190.4709  164.6646 C.3      91        0    0.0000
   1380 C         184.7027  189.8866  166.0554 C.3      91        0    0.0000
   1381 C         184.8138  191.1082  166.9764 C.3      91        0    0.0000
   1382 C         184.1293  190.9639  168.3415 C.3      91        0    0.0000
   1383 C         184.3539  192.3124  166.1292 C.3      91        0    0.0000
   1384 C         184.0786  191.7623  164.7177 C.3      91        0    0.0000
   1385 C         184.4348  192.7189  163.5771 C.3      91        0    0.0000
   1386 H         185.9590  190.6823  164.4869 H        91        0    0.0000
   1387 H         184.5477  189.7909  163.8819 H        91        0    0.0000
   1388 H         183.7182  189.4103  166.1177 H        91        0    0.0000
   1389 H         185.4566  189.1283  166.2892 H        91        0    0.0000
   1390 H         185.8842  191.2595  167.1813 H        91        0    0.0000
   1391 H         184.4716  191.7725  168.9983 H        91        0    0.0000
   1392 H         183.0483  191.0976  168.2160 H        91        0    0.0000
   1393 H         185.1533  193.0637  166.1133 H        91        0    0.0000
   1394 H         183.4632  192.8060  166.5322 H        91        0    0.0000
   1395 H         183.0131  191.4972  164.6547 H        91        0    0.0000
   1396 H         185.3277  192.3627  163.0497 H        91        0    0.0000
   1397 H         183.6193  192.7282  162.8441 H        91        0    0.0000
   1398 C         184.6779  194.1724  164.0717 C.3      92        0    0.0000
   1399 C         183.7435  195.2120  163.4364 C.3      92        0    0.0000
   1400 H         185.7095  194.4310  163.8004 H        92        0    0.0000
   1401 H         184.6244  194.2040  165.1662 H        92        0    0.0000
   1402 H         183.7864  195.0876  162.3468 H        92        0    0.0000
   1403 H         182.7008  195.0436  163.7303 H        92        0    0.0000
   1404 C         184.1442  196.6976  163.7384 C.3      93        0    0.0000
   1405 C         184.2388  197.5846  162.4888 C.3      93        0    0.0000
   1406 H         185.1342  196.6688  164.2113 H        93        0    0.0000
   1407 H         183.4558  197.1228  164.4782 H        93        0    0.0000
   1408 H         183.5796  197.1614  161.7201 H        93        0    0.0000
   1409 H         183.8740  198.5985  162.6908 H        93        0    0.0000
   1410 C         188.5369  199.8229  162.6281 C.3      94        0    0.0000
   1411 C         187.0157  199.6810  162.6475 C.3      94        0    0.0000
   1412 C         186.7149  198.1871  162.8595 C.3      94        0    0.0000
   1413 C         185.6755  197.6545  161.8644 C.3      94        0    0.0000
   1414 C         188.0836  197.4953  162.7654 C.3      94        0    0.0000
   1415 C         189.0893  198.5427  163.2600 C.3      94        0    0.0000
   1416 C         189.1794  198.6560  164.7928 C.3      94        0    0.0000
   1417 H         188.8741  199.8857  161.5855 H        94        0    0.0000
   1418 H         188.8715  200.7354  163.1315 H        94        0    0.0000
   1419 H         186.5834  200.0758  161.7215 H        94        0    0.0000
   1420 H         186.5914  200.2624  163.4745 H        94        0    0.0000
   1421 H         186.3289  198.0627  163.8811 H        94        0    0.0000
   1422 H         185.9688  196.6626  161.5016 H        94        0    0.0000
   1423 H         185.6410  198.3143  160.9891 H        94        0    0.0000
   1424 H         188.1138  196.5652  163.3411 H        94        0    0.0000
   1425 H         188.3120  197.2433  161.7216 H        94        0    0.0000
   1426 H         190.0867  198.3307  162.8539 H        94        0    0.0000
   1427 H         189.3017  197.6718  165.2576 H        94        0    0.0000
   1428 H         188.2407  199.0706  165.1798 H        94        0    0.0000
   1429 C         189.1376  202.0697  163.4568 C.3      95        0    0.0000
   1430 C         189.7722  200.7371  163.0499 C.3      95        0    0.0000
   1431 C         190.8716  200.4451  164.0770 C.3      95        0    0.0000
   1432 C         190.3386  199.5900  165.2421 C.3      95        0    0.0000
   1433 C         191.3197  201.8563  164.4780 C.3      95        0    0.0000
   1434 C         190.0177  202.6556  164.5734 C.3      95        0    0.0000
   1435 C         190.2523  204.1669  164.4700 C.3      95        0    0.0000
   1436 H         189.0730  202.7303  162.5847 H        95        0    0.0000
   1437 H         188.1161  201.9144  163.8225 H        95        0    0.0000
   1438 H         190.2253  200.8501  162.0568 H        95        0    0.0000
   1439 H         189.0291  199.9368  162.9734 H        95        0    0.0000
   1440 H         191.6999  199.9113  163.5936 H        95        0    0.0000
   1441 H         189.9610  200.2515  166.0312 H        95        0    0.0000
   1442 H         191.1369  198.9906  165.6927 H        95        0    0.0000
   1443 H         191.9633  202.2704  163.6908 H        95        0    0.0000
   1444 H         191.8861  201.8866  165.4135 H        95        0    0.0000
   1445 H         189.5442  202.4329  165.5400 H        95        0    0.0000
   1446 H         189.5510  204.7068  165.1168 H        95        0    0.0000
   1447 H         190.0558  204.4964  163.4429 H        95        0    0.0000
   1448 C         192.6250  203.8568  168.4579 C.3      96        0    0.0000
   1449 C         191.8047  203.5191  167.2223 C.3      96        0    0.0000
   1450 C         191.9400  204.7727  166.3486 C.3      96        0    0.0000
   1451 C         191.7112  204.5530  164.8478 C.3      96        0    0.0000
   1452 C         193.2977  205.3998  166.7264 C.3      96        0    0.0000
   1453 C         193.8624  204.5395  167.8717 C.3      96        0    0.0000
   1454 C         194.6478  205.3181  168.9299 C.3      96        0    0.0000
   1455 H         192.0668  204.5404  169.1091 H        96        0    0.0000
   1456 H         192.8801  202.9638  169.0368 H        96        0    0.0000
   1457 H         192.2224  202.6303  166.7372 H        96        0    0.0000
   1458 H         190.7605  203.3050  167.4711 H        96        0    0.0000
   1459 H         191.1649  205.4800  166.6796 H        96        0    0.0000
   1460 H         191.9825  205.4686  164.3089 H        96        0    0.0000
   1461 H         192.3890  203.7675  164.4933 H        96        0    0.0000
   1462 H         193.1346  206.4350  167.0510 H        96        0    0.0000
   1463 H         194.0015  205.4377  165.8882 H        96        0    0.0000
   1464 H         194.5076  203.7646  167.4326 H        96        0    0.0000
   1465 H         194.6228  204.7850  169.8877 H        96        0    0.0000
   1466 H         195.7008  205.3762  168.6296 H        96        0    0.0000
   1467 C         190.5189  206.9713  167.9334 C.3      97        0    0.0000
   1468 C         191.7132  206.1326  168.3623 C.3      97        0    0.0000
   1469 C         192.8915  207.1098  168.2636 C.3      97        0    0.0000
   1470 C         194.1064  206.7610  169.1327 C.3      97        0    0.0000
   1471 C         192.2914  208.5116  168.4968 C.3      97        0    0.0000
   1472 C         190.7711  208.3091  168.6319 C.3      97        0    0.0000
   1473 C         189.9201  209.4369  168.0430 C.3      97        0    0.0000
   1474 H         190.5099  207.0895  166.8430 H        97        0    0.0000
   1475 H         189.5701  206.5183  168.2369 H        97        0    0.0000
   1476 H         191.5594  205.7729  169.3854 H        97        0    0.0000
   1477 H         191.8515  205.2589  167.7177 H        97        0    0.0000
   1478 H         193.2406  207.0876  167.2205 H        97        0    0.0000
   1479 H         194.9132  207.4719  168.9179 H        97        0    0.0000
   1480 H         193.8422  206.8955  170.1883 H        97        0    0.0000
   1481 H         192.5318  209.1501  167.6376 H        97        0    0.0000
   1482 H         192.6954  209.0096  169.3844 H        97        0    0.0000
   1483 H         190.5344  208.1902  169.6993 H        97        0    0.0000
   1484 H         189.7145  209.2421  166.9838 H        97        0    0.0000
   1485 H         188.9495  209.4622  168.5525 H        97        0    0.0000
   1486 C         193.1548  209.9544  170.8157 C.3      98        0    0.0000
   1487 C         191.7486  210.3571  170.3984 C.3      98        0    0.0000
   1488 C         191.9286  210.7625  168.9341 C.3      98        0    0.0000
   1489 C         190.5950  210.8300  168.1858 C.3      98        0    0.0000
   1490 C         192.9227  209.7224  168.3858 C.3      98        0    0.0000
   1491 C         193.6725  209.1591  169.6106 C.3      98        0    0.0000
   1492 C         195.1991  209.0944  169.4752 C.3      98        0    0.0000
   1493 H         193.1532  209.3546  171.7313 H        98        0    0.0000
   1494 H         193.7519  210.8530  171.0051 H        98        0    0.0000
   1495 H         191.0658  209.5038  170.4918 H        98        0    0.0000
   1496 H         191.3587  211.1766  171.0098 H        98        0    0.0000
   1497 H         192.4145  211.7488  168.9071 H        98        0    0.0000
   1498 H         189.9078  211.5134  168.6985 H        98        0    0.0000
   1499 H         190.7620  211.2445  167.1844 H        98        0    0.0000
   1500 H         192.3993  208.9018  167.8794 H        98        0    0.0000
   1501 H         193.5894  210.1774  167.6458 H        98        0    0.0000
   1502 H         193.3289  208.1217  169.7388 H        98        0    0.0000
   1503 H         195.4561  208.8197  168.4453 H        98        0    0.0000
   1504 H         195.5796  208.2920  170.1185 H        98        0    0.0000
   1505 C         193.9733  213.5155  168.8893 C.3      99        0    0.0000
   1506 C         193.9990  212.0414  169.2634 C.3      99        0    0.0000
   1507 C         195.4643  211.6422  169.0474 C.3      99        0    0.0000
   1508 C         195.9332  210.4163  169.8413 C.3      99        0    0.0000
   1509 C         196.2846  212.9293  169.2714 C.3      99        0    0.0000
   1510 C         195.2602  214.0516  169.5198 C.3      99        0    0.0000
   1511 C         195.6559  215.4167  168.9517 C.3      99        0    0.0000
   1512 H         193.9890  213.6307  167.7986 H        99        0    0.0000
   1513 H         193.0822  214.0204  169.2745 H        99        0    0.0000
   1514 H         193.6881  211.9231  170.3070 H        99        0    0.0000
   1515 H         193.3185  211.4503  168.6425 H        99        0    0.0000
   1516 H         195.5729  211.3822  167.9838 H        99        0    0.0000
   1517 H         197.0086  210.2771  169.6785 H        99        0    0.0000
   1518 H         195.8004  210.6108  170.9122 H        99        0    0.0000
   1519 H         196.8843  213.1307  168.3751 H        99        0    0.0000
   1520 H         196.9844  212.8521  170.1101 H        99        0    0.0000
   1521 H         195.1021  214.1378  170.6047 H        99        0    0.0000
   1522 H         196.3913  215.2932  168.1479 H        99        0    0.0000
   1523 H         194.7754  215.8913  168.5024 H        99        0    0.0000
   1524 C         196.5286  219.4588  168.0771 C.3     100        0    0.0000
   1525 C         195.7419  218.1668  168.2933 C.3     100        0    0.0000
   1526 C         195.8473  217.8317  169.7912 C.3     100        0    0.0000
   1527 C         196.2369  216.3679  170.0354 C.3     100        0    0.0000
   1528 C         196.8542  218.8491  170.3496 C.3     100        0    0.0000
   1529 C         196.6942  220.0899  169.4620 C.3     100        0    0.0000
   1530 C         195.4926  220.9789  169.8312 C.3     100        0    0.0000
   1531 H         197.5181  219.2084  167.6736 H       100        0    0.0000
   1532 H         196.0424  220.1204  167.3534 H       100        0    0.0000
   1533 H         196.1313  217.3704  167.6497 H       100        0    0.0000
   1534 H         194.6898  218.3141  168.0226 H       100        0    0.0000
   1535 H         194.8662  218.0222  170.2489 H       100        0    0.0000
   1536 H         195.9017  216.0450  171.0279 H       100        0    0.0000
   1537 H         197.3298  216.2777  170.0255 H       100        0    0.0000
   1538 H         196.6837  219.0551  171.4108 H       100        0    0.0000
   1539 H         197.8780  218.4659  170.2496 H       100        0    0.0000
   1540 H         197.6108  220.6929  169.4861 H       100        0    0.0000
   1541 H         194.7326  220.4121  170.3798 H       100        0    0.0000
   1542 H         195.0131  221.3374  168.9123 H       100        0    0.0000
   1543 C         199.3020  222.9073  169.4200 C.3     101        0    0.0000
   1544 C         197.9315  222.3127  169.0992 C.3     101        0    0.0000
   1545 C         196.9005  223.1207  169.9061 C.3     101        0    0.0000
   1546 C         195.9187  222.2193  170.6664 C.3     101        0    0.0000
   1547 C         197.7412  224.0342  170.8113 C.3     101        0    0.0000
   1548 C         199.0332  224.2879  170.0243 C.3     101        0    0.0000
   1549 C         198.9074  225.3715  168.9378 C.3     101        0    0.0000
   1550 H         199.7965  222.2753  170.1688 H       101        0    0.0000
   1551 H         199.9537  222.9370  168.5411 H       101        0    0.0000
   1552 H         197.9145  221.2431  169.3354 H       101        0    0.0000
   1553 H         197.7178  222.4094  168.0282 H       101        0    0.0000
   1554 H         196.3375  223.7483  169.2008 H       101        0    0.0000
   1555 H         195.0297  222.7884  170.9618 H       101        0    0.0000
   1556 H         196.3916  221.8682  171.5914 H       101        0    0.0000
   1557 H         197.2097  224.9544  171.0729 H       101        0    0.0000
   1558 H         197.9874  223.5191  171.7490 H       101        0    0.0000
   1559 H         199.8472  224.5561  170.7098 H       101        0    0.0000
   1560 H         198.2917  225.0255  168.1007 H       101        0    0.0000
   1561 H         199.9012  225.5878  168.5272 H       101        0    0.0000
   1562 C         199.7381  226.4913  172.9912 C.3     102        0    0.0000
   1563 C         199.5758  225.9509  171.5787 C.3     102        0    0.0000
   1564 C         198.4145  226.7798  171.0261 C.3     102        0    0.0000
   1565 C         198.3211  226.6972  169.5005 C.3     102        0    0.0000
   1566 C         198.6770  228.1924  171.5796 C.3     102        0    0.0000
   1567 C         199.5814  228.0070  172.8154 C.3     102        0    0.0000
   1568 C         199.1437  228.7705  174.0718 C.3     102        0    0.0000
   1569 H         200.7099  226.2278  173.4203 H       102        0    0.0000
   1570 H         198.9611  226.0677  173.6367 H       102        0    0.0000
   1571 H         200.4924  226.1188  171.0002 H       102        0    0.0000
   1572 H         199.3584  224.8785  171.5728 H       102        0    0.0000
   1573 H         197.4814  226.4048  171.4713 H       102        0    0.0000
   1574 H         197.2773  226.7954  169.1795 H       102        0    0.0000
   1575 H         198.8667  227.5392  169.0580 H       102        0    0.0000
   1576 H         199.2008  228.8157  170.8443 H       102        0    0.0000
   1577 H         197.7337  228.6988  171.8097 H       102        0    0.0000
   1578 H         200.5710  228.4026  172.5419 H       102        0    0.0000
   1579 H         199.4790  228.2214  174.9597 H       102        0    0.0000
   1580 H         198.0481  228.7923  174.1112 H       102        0    0.0000
   1581 C         203.1731  230.8623  175.4609 C.3     103        0    0.0000
   1582 C         202.2209  230.0504  174.5961 C.3     103        0    0.0000
   1583 C         200.8357  230.4291  175.1353 C.3     103        0    0.0000
   1584 C         199.6738  230.2309  174.1536 C.3     103        0    0.0000
   1585 C         200.9852  231.8549  175.7047 C.3     103        0    0.0000
   1586 C         202.4740  232.2197  175.5591 C.3     103        0    0.0000
   1587 C         203.0368  233.0780  176.6947 C.3     103        0    0.0000
   1588 H         203.2776  230.3984  176.4493 H       103        0    0.0000
   1589 H         204.1681  230.9408  175.0122 H       103        0    0.0000
   1590 H         202.3474  230.3349  173.5459 H       103        0    0.0000
   1591 H         202.4113  228.9756  174.6770 H       103        0    0.0000
   1592 H         200.6331  229.7690  175.9920 H       103        0    0.0000
   1593 H         198.8462  230.8888  174.4445 H       103        0    0.0000
   1594 H         199.9915  230.5493  173.1537 H       103        0    0.0000
   1595 H         200.6784  231.8525  176.7581 H       103        0    0.0000
   1596 H         200.3552  232.5901  175.1930 H       103        0    0.0000
   1597 H         202.6063  232.7452  174.6022 H       103        0    0.0000
   1598 H         203.7168  232.4838  177.3166 H       103        0    0.0000
   1599 H         203.6319  233.8954  176.2703 H       103        0    0.0000
   1600 C         198.3967  234.4519  176.7215 C.3     104        0    0.0000
   1601 C         199.3743  234.0226  177.8183 C.3     104        0    0.0000
   1602 C         200.5227  233.2757  177.1166 C.3     104        0    0.0000
   1603 C         201.9221  233.6858  177.5917 C.3     104        0    0.0000
   1604 C         200.3069  233.5570  175.6261 C.3     104        0    0.0000
   1605 C         198.7859  233.6590  175.4691 C.3     104        0    0.0000
   1606 C         198.1092  232.2772  175.3928 C.3     104        0    0.0000
   1607 H         197.3553  234.3124  177.0266 H       104        0    0.0000
   1608 H         198.5337  235.5232  176.5260 H       104        0    0.0000
   1609 H         199.7166  234.8990  178.3794 H       104        0    0.0000
   1610 H         198.8775  233.3549  178.5320 H       104        0    0.0000
   1611 H         200.3861  232.1977  177.2837 H       104        0    0.0000
   1612 H         202.0096  234.7785  177.5630 H       104        0    0.0000
   1613 H         202.0772  233.3819  178.6333 H       104        0    0.0000
   1614 H         200.7484  232.7798  174.9939 H       104        0    0.0000
   1615 H         200.7683  234.5132  175.3471 H       104        0    0.0000
   1616 H         198.5470  234.2330  174.5648 H       104        0    0.0000
   1617 H         198.1614  231.7573  176.3558 H       104        0    0.0000
   1618 H         198.6391  231.6522  174.6642 H       104        0    0.0000
   1619 H         197.0678  232.3535  175.0803 H       104        0    0.0000
   1620 H         241.0918  168.9313  110.9958 H         0        0    0.0000
@<TRIPOS>BOND
     1     1     2      1
     2     1     6      1
     3     1     8      1
     4     1     9      1
     5     2     3      1
     6     2    10      1
     7     2    11      1
     8     3     4      1
     9     3     5      1
    10     3    12      1
    11     4    13      1
    12     4    14      1
    13     4  1620      H
    14     5     6      1
    15     5    15      1
    16     5    16      1
    17     6     7      1
    18     6    17      1
    19     7    18      1
    20     7    19      1
    21     7    23      1
    22    20    21      1
    23    20    25      1
    24    20    27      1
    25    20    28      1
    26    21    22      1
    27    21    29      1
    28    21    30      1
    29    22    23      1
    30    22    24      1
    31    22    31      1
    32    23    32      1
    33    23    33      1
    34    24    25      1
    35    24    34      1
    36    24    35      1
    37    25    26      1
    38    25    36      1
    39    26    37      1
    40    26    38      1
    41    26    39      1
    42    39    40      1
    43    39    41      1
    44    39    42      1
    45    40    43      1
    46    40    44      1
    47    40    48      1
    48    45    46      1
    49    45    50      1
    50    45    52      1
    51    45    53      1
    52    46    47      1
    53    46    54      1
    54    46    55      1
    55    47    48      1
    56    47    49      1
    57    47    56      1
    58    48    57      1
    59    48    58      1
    60    49    50      1
    61    49    59      1
    62    49    60      1
    63    50    51      1
    64    50    61      1
    65    51    62      1
    66    51    63      1
    67    51    64      1
    68    64    65      1
    69    64    66      1
    70    64    67      1
    71    65    68      1
    72    65    69      1
    73    65    73      1
    74    70    71      1
    75    70    75      1
    76    70    77      1
    77    70    78      1
    78    71    72      1
    79    71    79      1
    80    71    80      1
    81    72    73      1
    82    72    74      1
    83    72    81      1
    84    73    82      1
    85    73    83      1
    86    74    75      1
    87    74    84      1
    88    74    85      1
    89    75    76      1
    90    75    86      1
    91    76    87      1
    92    76    88      1
    93    76    92      1
    94    89    90      1
    95    89    94      1
    96    89    96      1
    97    89    97      1
    98    90    91      1
    99    90    98      1
   100    90    99      1
   101    91    92      1
   102    91    93      1
   103    91   100      1
   104    92   101      1
   105    92   102      1
   106    93    94      1
   107    93   103      1
   108    93   104      1
   109    94    95      1
   110    94   105      1
   111    95   106      1
   112    95   107      1
   113    95   108      1
   114   108   109      1
   115   108   110      1
   116   108   111      1
   117   109   112      1
   118   109   113      1
   119   109   114      1
   120   114   115      1
   121   114   116      1
   122   114   117      1
   123   115   118      1
   124   115   119      1
   125   115   120      1
   126   120   121      1
   127   120   122      1
   128   120   123      1
   129   121   124      1
   130   121   125      1
   131   121   126      1
   132   126   127      1
   133   126   128      1
   134   126   129      1
   135   127   130      1
   136   127   131      1
   137   127   135      1
   138   132   133      1
   139   132   137      1
   140   132   139      1
   141   132   140      1
   142   133   134      1
   143   133   141      1
   144   133   142      1
   145   134   135      1
   146   134   136      1
   147   134   143      1
   148   135   144      1
   149   135   145      1
   150   136   137      1
   151   136   146      1
   152   136   147      1
   153   137   138      1
   154   137   148      1
   155   138   149      1
   156   138   150      1
   157   138   154      1
   158   151   152      1
   159   151   156      1
   160   151   158      1
   161   151   159      1
   162   152   153      1
   163   152   160      1
   164   152   161      1
   165   153   154      1
   166   153   155      1
   167   153   162      1
   168   154   163      1
   169   154   164      1
   170   155   156      1
   171   155   165      1
   172   155   166      1
   173   156   157      1
   174   156   167      1
   175   157   168      1
   176   157   169      1
   177   157   170      1
   178   170   171      1
   179   170   172      1
   180   170   173      1
   181   171   174      1
   182   171   175      1
   183   171   179      1
   184   176   177      1
   185   176   181      1
   186   176   183      1
   187   176   184      1
   188   177   178      1
   189   177   185      1
   190   177   186      1
   191   178   179      1
   192   178   180      1
   193   178   187      1
   194   179   188      1
   195   179   189      1
   196   180   181      1
   197   180   190      1
   198   180   191      1
   199   181   182      1
   200   181   192      1
   201   182   193      1
   202   182   194      1
   203   182   195      1
   204   195   196      1
   205   195   197      1
   206   195   198      1
   207   196   199      1
   208   196   200      1
   209   196   204      1
   210   201   202      1
   211   201   206      1
   212   201   208      1
   213   201   209      1
   214   202   203      1
   215   202   210      1
   216   202   211      1
   217   203   204      1
   218   203   205      1
   219   203   212      1
   220   204   213      1
   221   204   214      1
   222   205   206      1
   223   205   215      1
   224   205   216      1
   225   206   207      1
   226   206   217      1
   227   207   218      1
   228   207   219      1
   229   207   223      1
   230   220   221      1
   231   220   225      1
   232   220   227      1
   233   220   228      1
   234   221   222      1
   235   221   229      1
   236   221   230      1
   237   222   223      1
   238   222   224      1
   239   222   231      1
   240   223   232      1
   241   223   233      1
   242   224   225      1
   243   224   234      1
   244   224   235      1
   245   225   226      1
   246   225   236      1
   247   226   237      1
   248   226   238      1
   249   226   242      1
   250   239   240      1
   251   239   244      1
   252   239   246      1
   253   239   247      1
   254   240   241      1
   255   240   248      1
   256   240   249      1
   257   241   242      1
   258   241   243      1
   259   241   250      1
   260   242   251      1
   261   242   252      1
   262   243   244      1
   263   243   253      1
   264   243   254      1
   265   244   245      1
   266   244   255      1
   267   245   256      1
   268   245   257      1
   269   245   261      1
   270   258   259      1
   271   258   263      1
   272   258   265      1
   273   258   266      1
   274   259   260      1
   275   259   267      1
   276   259   268      1
   277   260   261      1
   278   260   262      1
   279   260   269      1
   280   261   270      1
   281   261   271      1
   282   262   263      1
   283   262   272      1
   284   262   273      1
   285   263   264      1
   286   263   274      1
   287   264   275      1
   288   264   276      1
   289   264   277      1
   290   277   278      1
   291   277   279      1
   292   277   280      1
   293   278   281      1
   294   278   282      1
   295   278   286      1
   296   283   284      1
   297   283   288      1
   298   283   290      1
   299   283   291      1
   300   284   285      1
   301   284   292      1
   302   284   293      1
   303   285   286      1
   304   285   287      1
   305   285   294      1
   306   286   295      1
   307   286   296      1
   308   287   288      1
   309   287   297      1
   310   287   298      1
   311   288   289      1
   312   288   299      1
   313   289   300      1
   314   289   301      1
   315   289   305      1
   316   302   303      1
   317   302   307      1
   318   302   309      1
   319   302   310      1
   320   303   304      1
   321   303   311      1
   322   303   312      1
   323   304   305      1
   324   304   306      1
   325   304   313      1
   326   305   314      1
   327   305   315      1
   328   306   307      1
   329   306   316      1
   330   306   317      1
   331   307   308      1
   332   307   318      1
   333   308   319      1
   334   308   320      1
   335   308   324      1
   336   321   322      1
   337   321   326      1
   338   321   328      1
   339   321   329      1
   340   322   323      1
   341   322   330      1
   342   322   331      1
   343   323   324      1
   344   323   325      1
   345   323   332      1
   346   324   333      1
   347   324   334      1
   348   325   326      1
   349   325   335      1
   350   325   336      1
   351   326   327      1
   352   326   337      1
   353   327   338      1
   354   327   339      1
   355   327   343      1
   356   340   341      1
   357   340   345      1
   358   340   347      1
   359   340   348      1
   360   341   342      1
   361   341   349      1
   362   341   350      1
   363   342   343      1
   364   342   344      1
   365   342   351      1
   366   343   352      1
   367   343   353      1
   368   344   345      1
   369   344   354      1
   370   344   355      1
   371   345   346      1
   372   345   356      1
   373   346   357      1
   374   346   358      1
   375   346   362      1
   376   359   360      1
   377   359   364      1
   378   359   366      1
   379   359   367      1
   380   360   361      1
   381   360   368      1
   382   360   369      1
   383   361   362      1
   384   361   363      1
   385   361   370      1
   386   362   371      1
   387   362   372      1
   388   363   364      1
   389   363   373      1
   390   363   374      1
   391   364   365      1
   392   364   375      1
   393   365   376      1
   394   365   377      1
   395   365   381      1
   396   378   379      1
   397   378   383      1
   398   378   385      1
   399   378   386      1
   400   379   380      1
   401   379   387      1
   402   379   388      1
   403   380   381      1
   404   380   382      1
   405   380   389      1
   406   381   390      1
   407   381   391      1
   408   382   383      1
   409   382   392      1
   410   382   393      1
   411   383   384      1
   412   383   394      1
   413   384   395      1
   414   384   396      1
   415   384   397      1
   416   397   398      1
   417   397   399      1
   418   397   400      1
   419   398   401      1
   420   398   402      1
   421   398   406      1
   422   403   404      1
   423   403   408      1
   424   403   410      1
   425   403   411      1
   426   404   405      1
   427   404   412      1
   428   404   413      1
   429   405   406      1
   430   405   407      1
   431   405   414      1
   432   406   415      1
   433   406   416      1
   434   407   408      1
   435   407   417      1
   436   407   418      1
   437   408   409      1
   438   408   419      1
   439   409   420      1
   440   409   421      1
   441   409   425      1
   442   422   423      1
   443   422   427      1
   444   422   429      1
   445   422   430      1
   446   423   424      1
   447   423   431      1
   448   423   432      1
   449   424   425      1
   450   424   426      1
   451   424   433      1
   452   425   434      1
   453   425   435      1
   454   426   427      1
   455   426   436      1
   456   426   437      1
   457   427   428      1
   458   427   438      1
   459   428   439      1
   460   428   440      1
   461   428   444      1
   462   441   442      1
   463   441   446      1
   464   441   448      1
   465   441   449      1
   466   442   443      1
   467   442   450      1
   468   442   451      1
   469   443   444      1
   470   443   445      1
   471   443   452      1
   472   444   453      1
   473   444   454      1
   474   445   446      1
   475   445   455      1
   476   445   456      1
   477   446   447      1
   478   446   457      1
   479   447   458      1
   480   447   459      1
   481   447   463      1
   482   460   461      1
   483   460   465      1
   484   460   467      1
   485   460   468      1
   486   461   462      1
   487   461   469      1
   488   461   470      1
   489   462   463      1
   490   462   464      1
   491   462   471      1
   492   463   472      1
   493   463   473      1
   494   464   465      1
   495   464   474      1
   496   464   475      1
   497   465   466      1
   498   465   476      1
   499   466   477      1
   500   466   478      1
   501   466   479      1
   502   479   480      1
   503   479   481      1
   504   479   482      1
   505   480   483      1
   506   480   484      1
   507   480   488      1
   508   485   486      1
   509   485   490      1
   510   485   492      1
   511   485   493      1
   512   486   487      1
   513   486   494      1
   514   486   495      1
   515   487   488      1
   516   487   489      1
   517   487   496      1
   518   488   497      1
   519   488   498      1
   520   489   490      1
   521   489   499      1
   522   489   500      1
   523   490   491      1
   524   490   501      1
   525   491   502      1
   526   491   503      1
   527   491   507      1
   528   504   505      1
   529   504   509      1
   530   504   511      1
   531   504   512      1
   532   505   506      1
   533   505   513      1
   534   505   514      1
   535   506   507      1
   536   506   508      1
   537   506   515      1
   538   507   516      1
   539   507   517      1
   540   508   509      1
   541   508   518      1
   542   508   519      1
   543   509   510      1
   544   509   520      1
   545   510   521      1
   546   510   522      1
   547   510   526      1
   548   523   524      1
   549   523   528      1
   550   523   530      1
   551   523   531      1
   552   524   525      1
   553   524   532      1
   554   524   533      1
   555   525   526      1
   556   525   527      1
   557   525   534      1
   558   526   535      1
   559   526   536      1
   560   527   528      1
   561   527   537      1
   562   527   538      1
   563   528   529      1
   564   528   539      1
   565   529   540      1
   566   529   541      1
   567   529   545      1
   568   542   543      1
   569   542   547      1
   570   542   549      1
   571   542   550      1
   572   543   544      1
   573   543   551      1
   574   543   552      1
   575   544   545      1
   576   544   546      1
   577   544   553      1
   578   545   554      1
   579   545   555      1
   580   546   547      1
   581   546   556      1
   582   546   557      1
   583   547   548      1
   584   547   558      1
   585   548   559      1
   586   548   560      1
   587   548   564      1
   588   561   562      1
   589   561   566      1
   590   561   568      1
   591   561   569      1
   592   562   563      1
   593   562   570      1
   594   562   571      1
   595   563   564      1
   596   563   565      1
   597   563   572      1
   598   564   573      1
   599   564   574      1
   600   565   566      1
   601   565   575      1
   602   565   576      1
   603   566   567      1
   604   566   577      1
   605   567   578      1
   606   567   579      1
   607   567   583      1
   608   580   581      1
   609   580   585      1
   610   580   587      1
   611   580   588      1
   612   581   582      1
   613   581   589      1
   614   581   590      1
   615   582   583      1
   616   582   584      1
   617   582   591      1
   618   583   592      1
   619   583   593      1
   620   584   585      1
   621   584   594      1
   622   584   595      1
   623   585   586      1
   624   585   596      1
   625   586   597      1
   626   586   598      1
   627   586   602      1
   628   599   600      1
   629   599   604      1
   630   599   606      1
   631   599   607      1
   632   600   601      1
   633   600   608      1
   634   600   609      1
   635   601   602      1
   636   601   603      1
   637   601   610      1
   638   602   611      1
   639   602   612      1
   640   603   604      1
   641   603   613      1
   642   603   614      1
   643   604   605      1
   644   604   615      1
   645   605   616      1
   646   605   617      1
   647   605   621      1
   648   618   619      1
   649   618   623      1
   650   618   625      1
   651   618   626      1
   652   619   620      1
   653   619   627      1
   654   619   628      1
   655   620   621      1
   656   620   622      1
   657   620   629      1
   658   621   630      1
   659   621   631      1
   660   622   623      1
   661   622   632      1
   662   622   633      1
   663   623   624      1
   664   623   634      1
   665   624   635      1
   666   624   636      1
   667   624   640      1
   668   637   638      1
   669   637   642      1
   670   637   644      1
   671   637   645      1
   672   638   639      1
   673   638   646      1
   674   638   647      1
   675   639   640      1
   676   639   641      1
   677   639   648      1
   678   640   649      1
   679   640   650      1
   680   641   642      1
   681   641   651      1
   682   641   652      1
   683   642   643      1
   684   642   653      1
   685   643   654      1
   686   643   655      1
   687   643   659      1
   688   656   657      1
   689   656   661      1
   690   656   663      1
   691   656   664      1
   692   657   658      1
   693   657   665      1
   694   657   666      1
   695   658   659      1
   696   658   660      1
   697   658   667      1
   698   659   668      1
   699   659   669      1
   700   660   661      1
   701   660   670      1
   702   660   671      1
   703   661   662      1
   704   661   672      1
   705   662   673      1
   706   662   674      1
   707   662   675      1
   708   675   676      1
   709   675   677      1
   710   675   678      1
   711   676   679      1
   712   676   680      1
   713   676   684      1
   714   681   682      1
   715   681   686      1
   716   681   688      1
   717   681   689      1
   718   682   683      1
   719   682   690      1
   720   682   691      1
   721   683   684      1
   722   683   685      1
   723   683   692      1
   724   684   693      1
   725   684   694      1
   726   685   686      1
   727   685   695      1
   728   685   696      1
   729   686   687      1
   730   686   697      1
   731   687   698      1
   732   687   699      1
   733   687   703      1
   734   700   701      1
   735   700   705      1
   736   700   707      1
   737   700   708      1
   738   701   702      1
   739   701   709      1
   740   701   710      1
   741   702   703      1
   742   702   704      1
   743   702   711      1
   744   703   712      1
   745   703   713      1
   746   704   705      1
   747   704   714      1
   748   704   715      1
   749   705   706      1
   750   705   716      1
   751   706   717      1
   752   706   718      1
   753   706   722      1
   754   719   720      1
   755   719   724      1
   756   719   726      1
   757   719   727      1
   758   720   721      1
   759   720   728      1
   760   720   729      1
   761   721   722      1
   762   721   723      1
   763   721   730      1
   764   722   731      1
   765   722   732      1
   766   723   724      1
   767   723   733      1
   768   723   734      1
   769   724   725      1
   770   724   735      1
   771   725   736      1
   772   725   737      1
   773   725   741      1
   774   738   739      1
   775   738   743      1
   776   738   745      1
   777   738   746      1
   778   739   740      1
   779   739   747      1
   780   739   748      1
   781   740   741      1
   782   740   742      1
   783   740   749      1
   784   741   750      1
   785   741   751      1
   786   742   743      1
   787   742   752      1
   788   742   753      1
   789   743   744      1
   790   743   754      1
   791   744   755      1
   792   744   756      1
   793   744   760      1
   794   757   758      1
   795   757   762      1
   796   757   764      1
   797   757   765      1
   798   758   759      1
   799   758   766      1
   800   758   767      1
   801   759   760      1
   802   759   761      1
   803   759   768      1
   804   760   769      1
   805   760   770      1
   806   761   762      1
   807   761   771      1
   808   761   772      1
   809   762   763      1
   810   762   773      1
   811   763   774      1
   812   763   775      1
   813   763   779      1
   814   776   777      1
   815   776   781      1
   816   776   783      1
   817   776   784      1
   818   777   778      1
   819   777   785      1
   820   777   786      1
   821   778   779      1
   822   778   780      1
   823   778   787      1
   824   779   788      1
   825   779   789      1
   826   780   781      1
   827   780   790      1
   828   780   791      1
   829   781   782      1
   830   781   792      1
   831   782   793      1
   832   782   794      1
   833   782   795      1
   834   795   796      1
   835   795   797      1
   836   795   798      1
   837   796   799      1
   838   796   800      1
   839   796   804      1
   840   801   802      1
   841   801   806      1
   842   801   808      1
   843   801   809      1
   844   802   803      1
   845   802   810      1
   846   802   811      1
   847   803   804      1
   848   803   805      1
   849   803   812      1
   850   804   813      1
   851   804   814      1
   852   805   806      1
   853   805   815      1
   854   805   816      1
   855   806   807      1
   856   806   817      1
   857   807   818      1
   858   807   819      1
   859   807   823      1
   860   820   821      1
   861   820   825      1
   862   820   827      1
   863   820   828      1
   864   821   822      1
   865   821   829      1
   866   821   830      1
   867   822   823      1
   868   822   824      1
   869   822   831      1
   870   823   832      1
   871   823   833      1
   872   824   825      1
   873   824   834      1
   874   824   835      1
   875   825   826      1
   876   825   836      1
   877   826   837      1
   878   826   838      1
   879   826   839      1
   880   839   840      1
   881   839   841      1
   882   839   842      1
   883   840   843      1
   884   840   844      1
   885   840   848      1
   886   845   846      1
   887   845   850      1
   888   845   852      1
   889   845   853      1
   890   846   847      1
   891   846   854      1
   892   846   855      1
   893   847   848      1
   894   847   849      1
   895   847   856      1
   896   848   857      1
   897   848   858      1
   898   849   850      1
   899   849   859      1
   900   849   860      1
   901   850   851      1
   902   850   861      1
   903   851   862      1
   904   851   863      1
   905   851   867      1
   906   864   865      1
   907   864   869      1
   908   864   871      1
   909   864   872      1
   910   865   866      1
   911   865   873      1
   912   865   874      1
   913   866   867      1
   914   866   868      1
   915   866   875      1
   916   867   876      1
   917   867   877      1
   918   868   869      1
   919   868   878      1
   920   868   879      1
   921   869   870      1
   922   869   880      1
   923   870   881      1
   924   870   882      1
   925   870   883      1
   926   883   884      1
   927   883   885      1
   928   883   886      1
   929   884   887      1
   930   884   888      1
   931   884   892      1
   932   889   890      1
   933   889   894      1
   934   889   896      1
   935   889   897      1
   936   890   891      1
   937   890   898      1
   938   890   899      1
   939   891   892      1
   940   891   893      1
   941   891   900      1
   942   892   901      1
   943   892   902      1
   944   893   894      1
   945   893   903      1
   946   893   904      1
   947   894   895      1
   948   894   905      1
   949   895   906      1
   950   895   907      1
   951   895   908      1
   952   908   909      1
   953   908   910      1
   954   908   911      1
   955   909   912      1
   956   909   913      1
   957   909   917      1
   958   914   915      1
   959   914   919      1
   960   914   921      1
   961   914   922      1
   962   915   916      1
   963   915   923      1
   964   915   924      1
   965   916   917      1
   966   916   918      1
   967   916   925      1
   968   917   926      1
   969   917   927      1
   970   918   919      1
   971   918   928      1
   972   918   929      1
   973   919   920      1
   974   919   930      1
   975   920   931      1
   976   920   932      1
   977   920   936      1
   978   933   934      1
   979   933   938      1
   980   933   940      1
   981   933   941      1
   982   934   935      1
   983   934   942      1
   984   934   943      1
   985   935   936      1
   986   935   937      1
   987   935   944      1
   988   936   945      1
   989   936   946      1
   990   937   938      1
   991   937   947      1
   992   937   948      1
   993   938   939      1
   994   938   949      1
   995   939   950      1
   996   939   951      1
   997   939   955      1
   998   952   953      1
   999   952   957      1
  1000   952   959      1
  1001   952   960      1
  1002   953   954      1
  1003   953   961      1
  1004   953   962      1
  1005   954   955      1
  1006   954   956      1
  1007   954   963      1
  1008   955   964      1
  1009   955   965      1
  1010   956   957      1
  1011   956   966      1
  1012   956   967      1
  1013   957   958      1
  1014   957   968      1
  1015   958   969      1
  1016   958   970      1
  1017   958   971      1
  1018   971   972      1
  1019   971   973      1
  1020   971   974      1
  1021   972   975      1
  1022   972   976      1
  1023   972   980      1
  1024   977   978      1
  1025   977   982      1
  1026   977   984      1
  1027   977   985      1
  1028   978   979      1
  1029   978   986      1
  1030   978   987      1
  1031   979   980      1
  1032   979   981      1
  1033   979   988      1
  1034   980   989      1
  1035   980   990      1
  1036   981   982      1
  1037   981   991      1
  1038   981   992      1
  1039   982   983      1
  1040   982   993      1
  1041   983   994      1
  1042   983   995      1
  1043   983   999      1
  1044   996   997      1
  1045   996  1001      1
  1046   996  1003      1
  1047   996  1004      1
  1048   997   998      1
  1049   997  1005      1
  1050   997  1006      1
  1051   998   999      1
  1052   998  1000      1
  1053   998  1007      1
  1054   999  1008      1
  1055   999  1009      1
  1056  1000  1001      1
  1057  1000  1010      1
  1058  1000  1011      1
  1059  1001  1002      1
  1060  1001  1012      1
  1061  1002  1013      1
  1062  1002  1014      1
  1063  1002  1015      1
  1064  1015  1016      1
  1065  1015  1017      1
  1066  1015  1018      1
  1067  1016  1019      1
  1068  1016  1020      1
  1069  1016  1024      1
  1070  1021  1022      1
  1071  1021  1026      1
  1072  1021  1028      1
  1073  1021  1029      1
  1074  1022  1023      1
  1075  1022  1030      1
  1076  1022  1031      1
  1077  1023  1024      1
  1078  1023  1025      1
  1079  1023  1032      1
  1080  1024  1033      1
  1081  1024  1034      1
  1082  1025  1026      1
  1083  1025  1035      1
  1084  1025  1036      1
  1085  1026  1027      1
  1086  1026  1037      1
  1087  1027  1038      1
  1088  1027  1039      1
  1089  1027  1043      1
  1090  1040  1041      1
  1091  1040  1045      1
  1092  1040  1047      1
  1093  1040  1048      1
  1094  1041  1042      1
  1095  1041  1049      1
  1096  1041  1050      1
  1097  1042  1043      1
  1098  1042  1044      1
  1099  1042  1051      1
  1100  1043  1052      1
  1101  1043  1053      1
  1102  1044  1045      1
  1103  1044  1054      1
  1104  1044  1055      1
  1105  1045  1046      1
  1106  1045  1056      1
  1107  1046  1057      1
  1108  1046  1058      1
  1109  1046  1059      1
  1110  1059  1060      1
  1111  1059  1061      1
  1112  1059  1062      1
  1113  1060  1063      1
  1114  1060  1064      1
  1115  1060  1068      1
  1116  1065  1066      1
  1117  1065  1070      1
  1118  1065  1072      1
  1119  1065  1073      1
  1120  1066  1067      1
  1121  1066  1074      1
  1122  1066  1075      1
  1123  1067  1068      1
  1124  1067  1069      1
  1125  1067  1076      1
  1126  1068  1077      1
  1127  1068  1078      1
  1128  1069  1070      1
  1129  1069  1079      1
  1130  1069  1080      1
  1131  1070  1071      1
  1132  1070  1081      1
  1133  1071  1082      1
  1134  1071  1083      1
  1135  1071  1087      1
  1136  1084  1085      1
  1137  1084  1089      1
  1138  1084  1091      1
  1139  1084  1092      1
  1140  1085  1086      1
  1141  1085  1093      1
  1142  1085  1094      1
  1143  1086  1087      1
  1144  1086  1088      1
  1145  1086  1095      1
  1146  1087  1096      1
  1147  1087  1097      1
  1148  1088  1089      1
  1149  1088  1098      1
  1150  1088  1099      1
  1151  1089  1090      1
  1152  1089  1100      1
  1153  1090  1101      1
  1154  1090  1102      1
  1155  1090  1103      1
  1156  1103  1104      1
  1157  1103  1105      1
  1158  1103  1106      1
  1159  1104  1107      1
  1160  1104  1108      1
  1161  1104  1109      1
  1162  1109  1110      1
  1163  1109  1111      1
  1164  1109  1112      1
  1165  1110  1113      1
  1166  1110  1114      1
  1167  1110  1118      1
  1168  1115  1116      1
  1169  1115  1120      1
  1170  1115  1122      1
  1171  1115  1123      1
  1172  1116  1117      1
  1173  1116  1124      1
  1174  1116  1125      1
  1175  1117  1118      1
  1176  1117  1119      1
  1177  1117  1126      1
  1178  1118  1127      1
  1179  1118  1128      1
  1180  1119  1120      1
  1181  1119  1129      1
  1182  1119  1130      1
  1183  1120  1121      1
  1184  1120  1131      1
  1185  1121  1132      1
  1186  1121  1133      1
  1187  1121  1137      1
  1188  1134  1135      1
  1189  1134  1139      1
  1190  1134  1141      1
  1191  1134  1142      1
  1192  1135  1136      1
  1193  1135  1143      1
  1194  1135  1144      1
  1195  1136  1137      1
  1196  1136  1138      1
  1197  1136  1145      1
  1198  1137  1146      1
  1199  1137  1147      1
  1200  1138  1139      1
  1201  1138  1148      1
  1202  1138  1149      1
  1203  1139  1140      1
  1204  1139  1150      1
  1205  1140  1151      1
  1206  1140  1152      1
  1207  1140  1153      1
  1208  1153  1154      1
  1209  1153  1155      1
  1210  1153  1156      1
  1211  1154  1157      1
  1212  1154  1158      1
  1213  1154  1162      1
  1214  1159  1160      1
  1215  1159  1164      1
  1216  1159  1166      1
  1217  1159  1167      1
  1218  1160  1161      1
  1219  1160  1168      1
  1220  1160  1169      1
  1221  1161  1162      1
  1222  1161  1163      1
  1223  1161  1170      1
  1224  1162  1171      1
  1225  1162  1172      1
  1226  1163  1164      1
  1227  1163  1173      1
  1228  1163  1174      1
  1229  1164  1165      1
  1230  1164  1175      1
  1231  1165  1176      1
  1232  1165  1177      1
  1233  1165  1181      1
  1234  1178  1179      1
  1235  1178  1183      1
  1236  1178  1185      1
  1237  1178  1186      1
  1238  1179  1180      1
  1239  1179  1187      1
  1240  1179  1188      1
  1241  1180  1181      1
  1242  1180  1182      1
  1243  1180  1189      1
  1244  1181  1190      1
  1245  1181  1191      1
  1246  1182  1183      1
  1247  1182  1192      1
  1248  1182  1193      1
  1249  1183  1184      1
  1250  1183  1194      1
  1251  1184  1195      1
  1252  1184  1196      1
  1253  1184  1200      1
  1254  1197  1198      1
  1255  1197  1202      1
  1256  1197  1204      1
  1257  1197  1205      1
  1258  1198  1199      1
  1259  1198  1206      1
  1260  1198  1207      1
  1261  1199  1200      1
  1262  1199  1201      1
  1263  1199  1208      1
  1264  1200  1209      1
  1265  1200  1210      1
  1266  1201  1202      1
  1267  1201  1211      1
  1268  1201  1212      1
  1269  1202  1203      1
  1270  1202  1213      1
  1271  1203  1214      1
  1272  1203  1215      1
  1273  1203  1219      1
  1274  1216  1217      1
  1275  1216  1221      1
  1276  1216  1223      1
  1277  1216  1224      1
  1278  1217  1218      1
  1279  1217  1225      1
  1280  1217  1226      1
  1281  1218  1219      1
  1282  1218  1220      1
  1283  1218  1227      1
  1284  1219  1228      1
  1285  1219  1229      1
  1286  1220  1221      1
  1287  1220  1230      1
  1288  1220  1231      1
  1289  1221  1222      1
  1290  1221  1232      1
  1291  1222  1233      1
  1292  1222  1234      1
  1293  1222  1235      1
  1294  1235  1236      1
  1295  1235  1237      1
  1296  1235  1238      1
  1297  1236  1239      1
  1298  1236  1240      1
  1299  1236  1244      1
  1300  1241  1242      1
  1301  1241  1246      1
  1302  1241  1248      1
  1303  1241  1249      1
  1304  1242  1243      1
  1305  1242  1250      1
  1306  1242  1251      1
  1307  1243  1244      1
  1308  1243  1245      1
  1309  1243  1252      1
  1310  1244  1253      1
  1311  1244  1254      1
  1312  1245  1246      1
  1313  1245  1255      1
  1314  1245  1256      1
  1315  1246  1247      1
  1316  1246  1257      1
  1317  1247  1258      1
  1318  1247  1259      1
  1319  1247  1260      1
  1320  1260  1261      1
  1321  1260  1262      1
  1322  1260  1263      1
  1323  1261  1264      1
  1324  1261  1265      1
  1325  1261  1269      1
  1326  1266  1267      1
  1327  1266  1271      1
  1328  1266  1273      1
  1329  1266  1274      1
  1330  1267  1268      1
  1331  1267  1275      1
  1332  1267  1276      1
  1333  1268  1269      1
  1334  1268  1270      1
  1335  1268  1277      1
  1336  1269  1278      1
  1337  1269  1279      1
  1338  1270  1271      1
  1339  1270  1280      1
  1340  1270  1281      1
  1341  1271  1272      1
  1342  1271  1282      1
  1343  1272  1283      1
  1344  1272  1284      1
  1345  1272  1288      1
  1346  1285  1286      1
  1347  1285  1290      1
  1348  1285  1292      1
  1349  1285  1293      1
  1350  1286  1287      1
  1351  1286  1294      1
  1352  1286  1295      1
  1353  1287  1288      1
  1354  1287  1289      1
  1355  1287  1296      1
  1356  1288  1297      1
  1357  1288  1298      1
  1358  1289  1290      1
  1359  1289  1299      1
  1360  1289  1300      1
  1361  1290  1291      1
  1362  1290  1301      1
  1363  1291  1302      1
  1364  1291  1303      1
  1365  1291  1307      1
  1366  1304  1305      1
  1367  1304  1309      1
  1368  1304  1311      1
  1369  1304  1312      1
  1370  1305  1306      1
  1371  1305  1313      1
  1372  1305  1314      1
  1373  1306  1307      1
  1374  1306  1308      1
  1375  1306  1315      1
  1376  1307  1316      1
  1377  1307  1317      1
  1378  1308  1309      1
  1379  1308  1318      1
  1380  1308  1319      1
  1381  1309  1310      1
  1382  1309  1320      1
  1383  1310  1321      1
  1384  1310  1322      1
  1385  1310  1326      1
  1386  1323  1324      1
  1387  1323  1328      1
  1388  1323  1330      1
  1389  1323  1331      1
  1390  1324  1325      1
  1391  1324  1332      1
  1392  1324  1333      1
  1393  1325  1326      1
  1394  1325  1327      1
  1395  1325  1334      1
  1396  1326  1335      1
  1397  1326  1336      1
  1398  1327  1328      1
  1399  1327  1337      1
  1400  1327  1338      1
  1401  1328  1329      1
  1402  1328  1339      1
  1403  1329  1340      1
  1404  1329  1341      1
  1405  1329  1342      1
  1406  1342  1343      1
  1407  1342  1344      1
  1408  1342  1345      1
  1409  1343  1346      1
  1410  1343  1347      1
  1411  1343  1348      1
  1412  1348  1349      1
  1413  1348  1350      1
  1414  1348  1351      1
  1415  1349  1352      1
  1416  1349  1353      1
  1417  1349  1357      1
  1418  1354  1355      1
  1419  1354  1359      1
  1420  1354  1361      1
  1421  1354  1362      1
  1422  1355  1356      1
  1423  1355  1363      1
  1424  1355  1364      1
  1425  1356  1357      1
  1426  1356  1358      1
  1427  1356  1365      1
  1428  1357  1366      1
  1429  1357  1367      1
  1430  1358  1359      1
  1431  1358  1368      1
  1432  1358  1369      1
  1433  1359  1360      1
  1434  1359  1370      1
  1435  1360  1371      1
  1436  1360  1372      1
  1437  1360  1373      1
  1438  1373  1374      1
  1439  1373  1375      1
  1440  1373  1376      1
  1441  1374  1377      1
  1442  1374  1378      1
  1443  1374  1382      1
  1444  1379  1380      1
  1445  1379  1384      1
  1446  1379  1386      1
  1447  1379  1387      1
  1448  1380  1381      1
  1449  1380  1388      1
  1450  1380  1389      1
  1451  1381  1382      1
  1452  1381  1383      1
  1453  1381  1390      1
  1454  1382  1391      1
  1455  1382  1392      1
  1456  1383  1384      1
  1457  1383  1393      1
  1458  1383  1394      1
  1459  1384  1385      1
  1460  1384  1395      1
  1461  1385  1396      1
  1462  1385  1397      1
  1463  1385  1398      1
  1464  1398  1399      1
  1465  1398  1400      1
  1466  1398  1401      1
  1467  1399  1402      1
  1468  1399  1403      1
  1469  1399  1404      1
  1470  1404  1405      1
  1471  1404  1406      1
  1472  1404  1407      1
  1473  1405  1408      1
  1474  1405  1409      1
  1475  1405  1413      1
  1476  1410  1411      1
  1477  1410  1415      1
  1478  1410  1417      1
  1479  1410  1418      1
  1480  1411  1412      1
  1481  1411  1419      1
  1482  1411  1420      1
  1483  1412  1413      1
  1484  1412  1414      1
  1485  1412  1421      1
  1486  1413  1422      1
  1487  1413  1423      1
  1488  1414  1415      1
  1489  1414  1424      1
  1490  1414  1425      1
  1491  1415  1416      1
  1492  1415  1426      1
  1493  1416  1427      1
  1494  1416  1428      1
  1495  1416  1432      1
  1496  1429  1430      1
  1497  1429  1434      1
  1498  1429  1436      1
  1499  1429  1437      1
  1500  1430  1431      1
  1501  1430  1438      1
  1502  1430  1439      1
  1503  1431  1432      1
  1504  1431  1433      1
  1505  1431  1440      1
  1506  1432  1441      1
  1507  1432  1442      1
  1508  1433  1434      1
  1509  1433  1443      1
  1510  1433  1444      1
  1511  1434  1435      1
  1512  1434  1445      1
  1513  1435  1446      1
  1514  1435  1447      1
  1515  1435  1451      1
  1516  1448  1449      1
  1517  1448  1453      1
  1518  1448  1455      1
  1519  1448  1456      1
  1520  1449  1450      1
  1521  1449  1457      1
  1522  1449  1458      1
  1523  1450  1451      1
  1524  1450  1452      1
  1525  1450  1459      1
  1526  1451  1460      1
  1527  1451  1461      1
  1528  1452  1453      1
  1529  1452  1462      1
  1530  1452  1463      1
  1531  1453  1454      1
  1532  1453  1464      1
  1533  1454  1465      1
  1534  1454  1466      1
  1535  1454  1470      1
  1536  1467  1468      1
  1537  1467  1472      1
  1538  1467  1474      1
  1539  1467  1475      1
  1540  1468  1469      1
  1541  1468  1476      1
  1542  1468  1477      1
  1543  1469  1470      1
  1544  1469  1471      1
  1545  1469  1478      1
  1546  1470  1479      1
  1547  1470  1480      1
  1548  1471  1472      1
  1549  1471  1481      1
  1550  1471  1482      1
  1551  1472  1473      1
  1552  1472  1483      1
  1553  1473  1484      1
  1554  1473  1485      1
  1555  1473  1489      1
  1556  1486  1487      1
  1557  1486  1491      1
  1558  1486  1493      1
  1559  1486  1494      1
  1560  1487  1488      1
  1561  1487  1495      1
  1562  1487  1496      1
  1563  1488  1489      1
  1564  1488  1490      1
  1565  1488  1497      1
  1566  1489  1498      1
  1567  1489  1499      1
  1568  1490  1491      1
  1569  1490  1500      1
  1570  1490  1501      1
  1571  1491  1492      1
  1572  1491  1502      1
  1573  1492  1503      1
  1574  1492  1504      1
  1575  1492  1508      1
  1576  1505  1506      1
  1577  1505  1510      1
  1578  1505  1512      1
  1579  1505  1513      1
  1580  1506  1507      1
  1581  1506  1514      1
  1582  1506  1515      1
  1583  1507  1508      1
  1584  1507  1509      1
  1585  1507  1516      1
  1586  1508  1517      1
  1587  1508  1518      1
  1588  1509  1510      1
  1589  1509  1519      1
  1590  1509  1520      1
  1591  1510  1511      1
  1592  1510  1521      1
  1593  1511  1522      1
  1594  1511  1523      1
  1595  1511  1527      1
  1596  1524  1525      1
  1597  1524  1529      1
  1598  1524  1531      1
  1599  1524  1532      1
  1600  1525  1526      1
  1601  1525  1533      1
  1602  1525  1534      1
  1603  1526  1527      1
  1604  1526  1528      1
  1605  1526  1535      1
  1606  1527  1536      1
  1607  1527  1537      1
  1608  1528  1529      1
  1609  1528  1538      1
  1610  1528  1539      1
  1611  1529  1530      1
  1612  1529  1540      1
  1613  1530  1541      1
  1614  1530  1542      1
  1615  1530  1546      1
  1616  1543  1544      1
  1617  1543  1548      1
  1618  1543  1550      1
  1619  1543  1551      1
  1620  1544  1545      1
  1621  1544  1552      1
  1622  1544  1553      1
  1623  1545  1546      1
  1624  1545  1547      1
  1625  1545  1554      1
  1626  1546  1555      1
  1627  1546  1556      1
  1628  1547  1548      1
  1629  1547  1557      1
  1630  1547  1558      1
  1631  1548  1549      1
  1632  1548  1559      1
  1633  1549  1560      1
  1634  1549  1561      1
  1635  1549  1565      1
  1636  1562  1563      1
  1637  1562  1567      1
  1638  1562  1569      1
  1639  1562  1570      1
  1640  1563  1564      1
  1641  1563  1571      1
  1642  1563  1572      1
  1643  1564  1565      1
  1644  1564  1566      1
  1645  1564  1573      1
  1646  1565  1574      1
  1647  1565  1575      1
  1648  1566  1567      1
  1649  1566  1576      1
  1650  1566  1577      1
  1651  1567  1568      1
  1652  1567  1578      1
  1653  1568  1579      1
  1654  1568  1580      1
  1655  1568  1584      1
  1656  1581  1582      1
  1657  1581  1586      1
  1658  1581  1588      1
  1659  1581  1589      1
  1660  1582  1583      1
  1661  1582  1590      1
  1662  1582  1591      1
  1663  1583  1584      1
  1664  1583  1585      1
  1665  1583  1592      1
  1666  1584  1593      1
  1667  1584  1594      1
  1668  1585  1586      1
  1669  1585  1595      1
  1670  1585  1596      1
  1671  1586  1587      1
  1672  1586  1597      1
  1673  1587  1598      1
  1674  1587  1599      1
  1675  1587  1603      1
  1676  1600  1601      1
  1677  1600  1605      1
  1678  1600  1607      1
  1679  1600  1608      1
  1680  1601  1602      1
  1681  1601  1609      1
  1682  1601  1610      1
  1683  1602  1603      1
  1684  1602  1604      1
  1685  1602  1611      1
  1686  1603  1612      1
  1687  1603  1613      1
  1688  1604  1605      1
  1689  1604  1614      1
  1690  1604  1615      1
  1691  1605  1606      1
  1692  1605  1616      1
  1693  1606  1617      1
  1694  1606  1618      1
  1695  1606  1619      H
