###
### Created by PolyChef-cpp17 on Wed Feb 26 21:14:12 2025
###

@<TRIPOS>MOLECULE
NO_INFO
1179 1233 1 0 0
SMALL
USER_CHARGES


@<TRIPOS>ATOM
      1 C         188.9853  219.5765  206.4085 C.3       0        0    0.0000
      2 C         190.4324  219.7225  206.8577 C.3       0        0    0.0000
      3 C         191.2141  219.5620  205.5497 C.3       0        0    0.0000
      4 C         192.7076  219.2611  205.7089 C.3       0        0    0.0000
      5 C         190.4143  218.5368  204.7222 C.3       0        0    0.0000
      6 C         189.0494  218.4030  205.4254 C.3       0        0    0.0000
      7 C         187.8399  218.2562  204.4971 C.3       0        0    0.0000
      8 H         188.3149  219.3726  207.2491 H         0        0    0.0000
      9 H         188.6529  220.5016  205.9248 H         0        0    0.0000
     10 H         190.6177  220.6916  207.3312 H         0        0    0.0000
     11 H         190.6759  218.9377  207.5823 H         0        0    0.0000
     12 H         191.1440  220.5221  205.0164 H         0        0    0.0000
     13 H         192.8299  218.3972  206.3729 H         0        0    0.0000
     14 H         193.1205  218.9712  204.7355 H         0        0    0.0000
     15 H         190.8996  217.5560  204.6754 H         0        0    0.0000
     16 H         190.3280  218.8883  203.6884 H         0        0    0.0000
     17 H         189.0936  217.4837  206.0287 H         0        0    0.0000
     18 H         187.0647  217.6733  205.0085 H         0        0    0.0000
     19 H         187.4131  219.2478  204.3050 H         0        0    0.0000
     20 C         190.1219  220.3097  201.5684 C.3       1        0    0.0000
     21 C         188.9833  219.9436  202.5237 C.3       1        0    0.0000
     22 C         188.4023  218.6084  202.0246 C.3       1        0    0.0000
     23 C         188.1591  217.5757  203.1321 C.3       1        0    0.0000
     24 C         189.4118  218.1186  200.9816 C.3       1        0    0.0000
     25 C         189.9618  219.3998  200.3456 C.3       1        0    0.0000
     26 C         189.0137  219.9801  199.2791 C.3       1        0    0.0000
     27 H         190.1241  221.3770  201.3274 H         1        0    0.0000
     28 H         191.0788  220.0887  202.0584 H         1        0    0.0000
     29 H         189.3597  219.8865  203.5510 H         1        0    0.0000
     30 H         188.2068  220.7171  202.5058 H         1        0    0.0000
     31 H         187.4533  218.8162  201.5098 H         1        0    0.0000
     32 H         187.3113  216.9382  202.8544 H         1        0    0.0000
     33 H         189.0292  216.9179  203.2400 H         1        0    0.0000
     34 H         188.9525  217.4446  200.2512 H         1        0    0.0000
     35 H         190.2296  217.5719  201.4688 H         1        0    0.0000
     36 H         190.9399  219.1949  199.8921 H         1        0    0.0000
     37 H         189.5501  220.6432  198.5914 H         1        0    0.0000
     38 H         188.2421  220.5858  199.7690 H         1        0    0.0000
     39 C         188.3048  218.8590  198.4651 C.3       2        0    0.0000
     40 C         188.8969  218.6342  197.0663 C.3       2        0    0.0000
     41 H         188.4215  217.9298  199.0375 H         2        0    0.0000
     42 H         187.2289  219.0630  198.4147 H         2        0    0.0000
     43 H         188.1142  218.4019  196.3346 H         2        0    0.0000
     44 H         189.3636  219.5722  196.7394 H         2        0    0.0000
     45 C         187.2730  215.1225  197.6983 C.3       3        0    0.0000
     46 C         188.1526  216.2438  198.2569 C.3       3        0    0.0000
     47 C         189.4901  216.1732  197.4984 C.3       3        0    0.0000
     48 C         190.0114  217.5324  197.0158 C.3       3        0    0.0000
     49 C         189.2220  215.2065  196.3405 C.3       3        0    0.0000
     50 C         188.2066  214.2050  196.9012 C.3       3        0    0.0000
     51 C         188.8707  213.1175  197.7669 C.3       3        0    0.0000
     52 H         186.7176  214.6085  198.4885 H         3        0    0.0000
     53 H         186.5320  215.5608  197.0175 H         3        0    0.0000
     54 H         187.6479  217.2092  198.1408 H         3        0    0.0000
     55 H         188.3247  216.0952  199.3293 H         3        0    0.0000
     56 H         190.2381  215.7138  198.1603 H         3        0    0.0000
     57 H         190.8438  217.8499  197.6550 H         3        0    0.0000
     58 H         190.4066  217.4510  195.9967 H         3        0    0.0000
     59 H         190.1401  214.7274  195.9853 H         3        0    0.0000
     60 H         188.7774  215.7416  195.4913 H         3        0    0.0000
     61 H         187.6617  213.7317  196.0746 H         3        0    0.0000
     62 H         189.0176  213.4652  198.7954 H         3        0    0.0000
     63 H         189.8639  212.8873  197.3634 H         3        0    0.0000
     64 C         188.0378  211.8029  197.7820 C.3       4        0    0.0000
     65 C         186.9876  211.7426  198.9004 C.3       4        0    0.0000
     66 H         187.5134  211.7490  196.8194 H         4        0    0.0000
     67 H         188.7117  210.9390  197.8206 H         4        0    0.0000
     68 H         186.8296  210.7137  199.2442 H         4        0    0.0000
     69 H         187.3734  212.3050  199.7604 H         4        0    0.0000
     70 C         182.6032  212.3196  197.2039 C.3       5        0    0.0000
     71 C         183.5696  211.1976  197.5930 C.3       5        0    0.0000
     72 C         184.9809  211.7107  197.2866 C.3       5        0    0.0000
     73 C         185.6113  212.3890  198.5175 C.3       5        0    0.0000
     74 C         184.7302  212.6518  196.1015 C.3       5        0    0.0000
     75 C         183.4335  213.3807  196.4628 C.3       5        0    0.0000
     76 C         182.7423  213.9842  195.2350 C.3       5        0    0.0000
     77 H         181.7948  211.9136  196.5853 H         5        0    0.0000
     78 H         182.1406  212.7566  198.0963 H         5        0    0.0000
     79 H         183.3605  210.3190  196.9697 H         5        0    0.0000
     80 H         183.4392  210.8889  198.6353 H         5        0    0.0000
     81 H         185.6205  210.8754  196.9739 H         5        0    0.0000
     82 H         184.9328  212.2853  199.3730 H         5        0    0.0000
     83 H         185.7453  213.4636  198.3539 H         5        0    0.0000
     84 H         184.5909  212.0576  195.1889 H         5        0    0.0000
     85 H         185.5518  213.3499  195.9153 H         5        0    0.0000
     86 H         183.6745  214.1872  197.1695 H         5        0    0.0000
     87 H         183.3957  214.7209  194.7532 H         5        0    0.0000
     88 H         181.8392  214.5192  195.5518 H         5        0    0.0000
     89 C         179.2361  214.0722  192.4127 C.3       6        0    0.0000
     90 C         180.0824  212.9531  193.0253 C.3       6        0    0.0000
     91 C         181.5291  213.4640  193.0361 C.3       6        0    0.0000
     92 C         182.3396  212.8923  194.2026 C.3       6        0    0.0000
     93 C         181.3605  214.9868  193.0615 C.3       6        0    0.0000
     94 C         180.2067  215.2126  192.0788 C.3       6        0    0.0000
     95 C         179.5438  216.5892  192.1786 C.3       6        0    0.0000
     96 H         178.7088  213.7299  191.5157 H         6        0    0.0000
     97 H         178.4751  214.3914  193.1349 H         6        0    0.0000
     98 H         179.9977  212.0258  192.4486 H         6        0    0.0000
     99 H         179.7250  212.7387  194.0396 H         6        0    0.0000
    100 H         182.0002  213.1791  192.0840 H         6        0    0.0000
    101 H         183.2529  212.4256  193.8145 H         6        0    0.0000
    102 H         181.7721  212.1028  194.7091 H         6        0    0.0000
    103 H         182.2724  215.5045  192.7475 H         6        0    0.0000
    104 H         181.0942  215.3359  194.0670 H         6        0    0.0000
    105 H         180.5809  215.0558  191.0566 H         6        0    0.0000
    106 H         180.2024  217.3596  191.7609 H         6        0    0.0000
    107 H         179.3918  216.8420  193.2348 H         6        0    0.0000
    108 C         178.1693  216.6369  191.4565 C.3       7        0    0.0000
    109 C         176.9943  217.0014  192.3752 C.3       7        0    0.0000
    110 H         178.2461  217.4085  190.6797 H         7        0    0.0000
    111 H         177.9909  215.6874  190.9385 H         7        0    0.0000
    112 H         177.3259  217.1406  193.4108 H         7        0    0.0000
    113 H         176.5890  217.9658  192.0432 H         7        0    0.0000
    114 C         175.8103  215.9742  192.3331 C.3       8        0    0.0000
    115 C         174.5334  216.5205  191.6785 C.3       8        0    0.0000
    116 H         175.5762  215.7178  193.3743 H         8        0    0.0000
    117 H         176.1418  215.0480  191.8492 H         8        0    0.0000
    118 H         173.7157  216.4375  192.4057 H         8        0    0.0000
    119 H         174.6325  217.5857  191.4386 H         8        0    0.0000
    120 C         174.0845  215.7306  190.4005 C.3       9        0    0.0000
    121 C         172.6608  215.1623  190.4865 C.3       9        0    0.0000
    122 H         174.1186  216.4383  189.5623 H         9        0    0.0000
    123 H         174.8150  214.9443  190.1767 H         9        0    0.0000
    124 H         172.3242  215.0852  191.5269 H         9        0    0.0000
    125 H         171.9823  215.8670  189.9887 H         9        0    0.0000
    126 C         172.4825  213.7793  189.7695 C.3      10        0    0.0000
    127 C         171.1174  213.1206  190.0152 C.3      10        0    0.0000
    128 H         173.2585  213.1134  190.1682 H        10        0    0.0000
    129 H         172.6849  213.8899  188.6977 H        10        0    0.0000
    130 H         171.0190  212.9326  191.0920 H        10        0    0.0000
    131 H         170.2955  213.7909  189.7376 H        10        0    0.0000
    132 C         167.8842  211.9443  187.0433 C.3      11        0    0.0000
    133 C         168.6618  212.4174  188.2635 C.3      11        0    0.0000
    134 C         170.0425  211.7867  188.0545 C.3      11        0    0.0000
    135 C         170.9382  211.7388  189.2961 C.3      11        0    0.0000
    136 C         169.7701  210.4285  187.3788 C.3      11        0    0.0000
    137 C         168.2985  210.4740  186.9231 C.3      11        0    0.0000
    138 C         168.0053  209.8169  185.5709 C.3      11        0    0.0000
    139 H         166.8040  212.0575  187.1778 H        11        0    0.0000
    140 H         168.1810  212.5292  186.1658 H        11        0    0.0000
    141 H         168.7125  213.5093  188.3179 H        11        0    0.0000
    142 H         168.1763  212.0535  189.1757 H        11        0    0.0000
    143 H         170.5682  212.4082  187.3138 H        11        0    0.0000
    144 H         170.5200  211.0210  190.0117 H        11        0    0.0000
    145 H         171.9265  211.3595  189.0106 H        11        0    0.0000
    146 H         169.9177  209.5795  188.0549 H        11        0    0.0000
    147 H         170.4690  210.2865  186.5475 H        11        0    0.0000
    148 H         167.7179  209.9167  187.6737 H        11        0    0.0000
    149 H         167.1460  210.3170  185.1086 H        11        0    0.0000
    150 H         168.8596  209.9761  184.9023 H        11        0    0.0000
    151 C         164.4902  206.5603  186.5827 C.3      12        0    0.0000
    152 C         165.2820  207.5257  185.6967 C.3      12        0    0.0000
    153 C         166.4927  207.9756  186.5249 C.3      12        0    0.0000
    154 C         167.7111  208.2888  185.6519 C.3      12        0    0.0000
    155 C         166.6922  206.8171  187.5078 C.3      12        0    0.0000
    156 C         165.2555  206.4671  187.9093 C.3      12        0    0.0000
    157 C         165.0953  205.0995  188.5788 C.3      12        0    0.0000
    158 H         163.4661  206.9137  186.7440 H        12        0    0.0000
    159 H         164.4229  205.5835  186.0888 H        12        0    0.0000
    160 H         164.6718  208.3838  185.3949 H        12        0    0.0000
    161 H         165.5922  207.0093  184.7804 H        12        0    0.0000
    162 H         166.2050  208.8722  187.0933 H        12        0    0.0000
    163 H         167.5352  207.9132  184.6368 H        12        0    0.0000
    164 H         168.5964  207.7664  186.0331 H        12        0    0.0000
    165 H         167.2976  207.1125  188.3707 H        12        0    0.0000
    166 H         167.1817  205.9661  187.0178 H        12        0    0.0000
    167 H         164.8771  207.2532  188.5790 H        12        0    0.0000
    168 H         164.0484  204.9333  188.8586 H        12        0    0.0000
    169 H         165.6775  205.0809  189.5079 H        12        0    0.0000
    170 C         165.5784  203.9362  187.6697 C.3      13        0    0.0000
    171 C         164.7888  202.6322  187.8527 C.3      13        0    0.0000
    172 H         165.4487  204.2701  186.6323 H        13        0    0.0000
    173 H         166.6531  203.7755  187.8152 H        13        0    0.0000
    174 H         165.1067  202.0966  188.7549 H        13        0    0.0000
    175 H         163.7322  202.8914  187.9977 H        13        0    0.0000
    176 C         166.5626  203.6826  184.0673 C.3      14        0    0.0000
    177 C         166.3554  203.4437  185.5621 C.3      14        0    0.0000
    178 C         166.0790  201.9401  185.7343 C.3      14        0    0.0000
    179 C         164.8532  201.6696  186.6165 C.3      14        0    0.0000
    180 C         165.9509  201.3994  184.3018 C.3      14        0    0.0000
    181 C         166.8504  202.3092  183.4554 C.3      14        0    0.0000
    182 C         168.3474  201.9563  183.5239 C.3      14        0    0.0000
    183 H         165.6337  204.0812  183.6395 H        14        0    0.0000
    184 H         167.3495  204.4182  183.8732 H        14        0    0.0000
    185 H         165.5421  204.0729  185.9403 H        14        0    0.0000
    186 H         167.2596  203.7175  186.1185 H        14        0    0.0000
    187 H         166.9640  201.4862  186.2023 H        14        0    0.0000
    188 H         164.8528  200.6284  186.9592 H        14        0    0.0000
    189 H         163.9418  201.8076  186.0223 H        14        0    0.0000
    190 H         166.2257  200.3422  184.2361 H        14        0    0.0000
    191 H         164.9148  201.4922  183.9509 H        14        0    0.0000
    192 H         166.5234  202.2955  182.4078 H        14        0    0.0000
    193 H         168.7302  202.0450  184.5463 H        14        0    0.0000
    194 H         168.9147  202.6701  182.9142 H        14        0    0.0000
    195 C         168.6359  200.5272  182.9836 C.3      15        0    0.0000
    196 C         169.7996  200.4612  181.9841 C.3      15        0    0.0000
    197 H         168.8965  199.9072  183.8509 H        15        0    0.0000
    198 H         167.7198  200.1013  182.5578 H        15        0    0.0000
    199 H         169.9138  201.4072  181.4419 H        15        0    0.0000
    200 H         170.7272  200.3105  182.5510 H        15        0    0.0000
    201 C         169.2468  195.6470  181.2821 C.3      16        0    0.0000
    202 C         169.8800  196.9016  181.8816 C.3      16        0    0.0000
    203 C         168.9415  198.0733  181.5449 C.3      16        0    0.0000
    204 C         169.6957  199.2760  180.9627 C.3      16        0    0.0000
    205 C         167.8921  197.4736  180.5963 C.3      16        0    0.0000
    206 C         167.7823  196.0007  181.0106 C.3      16        0    0.0000
    207 C         166.8980  195.7576  182.2473 C.3      16        0    0.0000
    208 H         169.7452  195.4177  180.3314 H        16        0    0.0000
    209 H         169.3699  194.7738  181.9303 H        16        0    0.0000
    210 H         170.8940  197.0416  181.4912 H        16        0    0.0000
    211 H         169.9652  196.8000  182.9700 H        16        0    0.0000
    212 H         168.4397  198.3808  182.4733 H        16        0    0.0000
    213 H         169.2089  199.6224  180.0437 H        16        0    0.0000
    214 H         170.7110  198.9673  180.6860 H        16        0    0.0000
    215 H         166.9381  198.0072  180.6496 H        16        0    0.0000
    216 H         168.2420  197.5290  179.5572 H        16        0    0.0000
    217 H         167.4060  195.3994  180.1732 H        16        0    0.0000
    218 H         166.8142  196.6617  182.8599 H        16        0    0.0000
    219 H         167.3647  194.9928  182.8799 H        16        0    0.0000
    220 C         164.0738  192.0589  180.4398 C.3      17        0    0.0000
    221 C         164.4970  192.9198  181.6329 C.3      17        0    0.0000
    222 C         165.5132  193.9345  181.0928 C.3      17        0    0.0000
    223 C         165.4769  195.2592  181.8601 C.3      17        0    0.0000
    224 C         165.1411  194.0448  179.6105 C.3      17        0    0.0000
    225 C         164.8520  192.5894  179.2285 C.3      17        0    0.0000
    226 C         164.0789  192.4151  177.9183 C.3      17        0    0.0000
    227 H         164.2916  190.9996  180.6133 H        17        0    0.0000
    228 H         162.9909  192.1478  180.2914 H        17        0    0.0000
    229 H         164.9361  192.3105  182.4302 H        17        0    0.0000
    230 H         163.6159  193.4191  182.0535 H        17        0    0.0000
    231 H         166.5160  193.4897  181.1706 H        17        0    0.0000
    232 H         164.8907  195.1301  182.7777 H        17        0    0.0000
    233 H         164.9695  196.0286  181.2665 H        17        0    0.0000
    234 H         165.9552  194.4700  179.0150 H        17        0    0.0000
    235 H         164.2504  194.6711  179.4746 H        17        0    0.0000
    236 H         165.8063  192.0460  179.1697 H        17        0    0.0000
    237 H         164.5346  193.0187  177.1247 H        17        0    0.0000
    238 H         163.0555  192.7865  178.0497 H        17        0    0.0000
    239 C         163.1631  188.6926  180.3009 C.3      18        0    0.0000
    240 C         163.5338  190.1121  179.8645 C.3      18        0    0.0000
    241 C         164.3971  189.9718  178.5979 C.3      18        0    0.0000
    242 C         164.0113  190.9309  177.4650 C.3      18        0    0.0000
    243 C         164.2468  188.5016  178.1942 C.3      18        0    0.0000
    244 C         164.0877  187.7515  179.5210 C.3      18        0    0.0000
    245 C         165.4367  187.5084  180.2240 C.3      18        0    0.0000
    246 H         163.2236  188.5714  181.3867 H        18        0    0.0000
    247 H         162.1226  188.4949  180.0128 H        18        0    0.0000
    248 H         162.6258  190.7021  179.6976 H        18        0    0.0000
    249 H         164.1071  190.6158  180.6516 H        18        0    0.0000
    250 H         165.4469  190.1440  178.8752 H        18        0    0.0000
    251 H         164.6992  190.7928  176.6223 H        18        0    0.0000
    252 H         163.0055  190.7015  177.0948 H        18        0    0.0000
    253 H         165.1001  188.1486  177.6059 H        18        0    0.0000
    254 H         163.3442  188.3630  177.5851 H        18        0    0.0000
    255 H         163.5903  186.7897  179.3427 H        18        0    0.0000
    256 H         165.3257  187.5354  181.3136 H        18        0    0.0000
    257 H         166.1365  188.3086  179.9551 H        18        0    0.0000
    258 C         162.8886  184.2494  179.6106 C.3      19        0    0.0000
    259 C         163.6873  185.3253  180.3505 C.3      19        0    0.0000
    260 C         165.1740  184.9640  180.1815 C.3      19        0    0.0000
    261 C         166.0701  186.1502  179.8045 C.3      19        0    0.0000
    262 C         165.1810  183.8651  179.1140 C.3      19        0    0.0000
    263 C         163.8692  183.1043  179.3349 C.3      19        0    0.0000
    264 C         163.9633  182.0953  180.4951 C.3      19        0    0.0000
    265 H         161.9997  183.9444  180.1710 H        19        0    0.0000
    266 H         162.5403  184.6625  178.6552 H        19        0    0.0000
    267 H         163.4418  186.3155  179.9511 H        19        0    0.0000
    268 H         163.4245  185.3311  181.4148 H        19        0    0.0000
    269 H         165.5319  184.5262  181.1243 H        19        0    0.0000
    270 H         167.0389  186.0478  180.3078 H        19        0    0.0000
    271 H         166.2704  186.1514  178.7269 H        19        0    0.0000
    272 H         166.0638  183.2223  179.1930 H        19        0    0.0000
    273 H         165.1823  184.3081  178.1097 H        19        0    0.0000
    274 H         163.5902  182.5768  178.4139 H        19        0    0.0000
    275 H         162.9767  181.6939  180.7516 H        19        0    0.0000
    276 H         164.3428  182.6035  181.3896 H        19        0    0.0000
    277 C         164.9266  180.9195  180.1612 C.3      20        0    0.0000
    278 C         166.3333  181.0773  180.7558 C.3      20        0    0.0000
    279 H         164.4776  180.0121  180.5850 H        20        0    0.0000
    280 H         164.9666  180.7717  179.0756 H        20        0    0.0000
    281 H         166.4311  182.0218  181.3037 H        20        0    0.0000
    282 H         166.4860  180.2731  181.4870 H        20        0    0.0000
    283 C         168.9229  178.2227  177.7159 C.3      21        0    0.0000
    284 C         168.3391  178.6347  179.0665 C.3      21        0    0.0000
    285 C         167.3081  179.7407  178.7823 C.3      21        0    0.0000
    286 C         167.4878  180.9558  179.7018 C.3      21        0    0.0000
    287 C         167.4749  180.0563  177.2879 C.3      21        0    0.0000
    288 C         167.9454  178.7395  176.6572 C.3      21        0    0.0000
    289 C         166.8142  177.7312  176.3844 C.3      21        0    0.0000
    290 H         169.8937  178.7172  177.5833 H        21        0    0.0000
    291 H         169.0987  177.1441  177.6553 H        21        0    0.0000
    292 H         169.1363  178.9588  179.7443 H        21        0    0.0000
    293 H         167.8410  177.7806  179.5403 H        21        0    0.0000
    294 H         166.3065  179.3166  178.9412 H        21        0    0.0000
    295 H         167.5452  181.8764  179.1095 H        21        0    0.0000
    296 H         168.4394  180.8655  180.2393 H        21        0    0.0000
    297 H         166.5510  180.4395  176.8438 H        21        0    0.0000
    298 H         168.2501  180.8202  177.1441 H        21        0    0.0000
    299 H         168.4847  178.9393  175.7224 H        21        0    0.0000
    300 H         165.8487  178.2369  176.2761 H        21        0    0.0000
    301 H         166.7191  177.0549  177.2425 H        21        0    0.0000
    302 C         170.6322  177.8238  174.9323 C.3      22        0    0.0000
    303 C         169.4861  177.3862  175.8432 C.3      22        0    0.0000
    304 C         168.5727  176.4809  174.9988 C.3      22        0    0.0000
    305 C         167.0931  176.8685  175.1212 C.3      22        0    0.0000
    306 C         169.1310  176.5845  173.5711 C.3      22        0    0.0000
    307 C         170.6313  176.8479  173.7528 C.3      22        0    0.0000
    308 C         171.4609  175.5866  174.0552 C.3      22        0    0.0000
    309 H         170.4252  178.8365  174.5633 H        22        0    0.0000
    310 H         171.5884  177.8625  175.4635 H        22        0    0.0000
    311 H         168.9643  178.2606  176.2473 H        22        0    0.0000
    312 H         169.8761  176.8206  176.6977 H        22        0    0.0000
    313 H         168.7025  175.4481  175.3517 H        22        0    0.0000
    314 H         166.4646  175.9706  175.1414 H        22        0    0.0000
    315 H         166.7952  177.4436  174.2362 H        22        0    0.0000
    316 H         168.9206  175.6866  172.9820 H        22        0    0.0000
    317 H         168.6783  177.4357  173.0460 H        22        0    0.0000
    318 H         171.0387  177.3437  172.8626 H        22        0    0.0000
    319 H         171.0010  174.9895  174.8500 H        22        0    0.0000
    320 H         172.4509  175.8851  174.4208 H        22        0    0.0000
    321 C         170.8127  176.7277  169.7998 C.3      23        0    0.0000
    322 C         170.7424  176.6158  171.3247 C.3      23        0    0.0000
    323 C         170.7170  175.1126  171.6549 C.3      23        0    0.0000
    324 C         171.6615  174.7029  172.7917 C.3      23        0    0.0000
    325 C         171.0648  174.4247  170.3309 C.3      23        0    0.0000
    326 C         170.4690  175.3375  169.2538 C.3      23        0    0.0000
    327 C         168.9557  175.1171  169.0683 C.3      23        0    0.0000
    328 H         170.1656  177.5239  169.4195 H        23        0    0.0000
    329 H         171.8404  176.9834  169.5115 H        23        0    0.0000
    330 H         171.5925  177.1370  171.7784 H        23        0    0.0000
    331 H         169.8307  177.0947  171.7007 H        23        0    0.0000
    332 H         169.6875  174.8357  171.9232 H        23        0    0.0000
    333 H         171.4703  173.6580  173.0639 H        23        0    0.0000
    334 H         172.7052  174.7592  172.4615 H        23        0    0.0000
    335 H         170.6753  173.4025  170.2851 H        23        0    0.0000
    336 H         172.1538  174.3705  170.2031 H        23        0    0.0000
    337 H         170.9829  175.1648  168.2997 H        23        0    0.0000
    338 H         168.4965  175.9550  168.5321 H        23        0    0.0000
    339 H         168.4724  175.0646  170.0511 H        23        0    0.0000
    340 C         170.6987  170.5910  168.4178 C.3      24        0    0.0000
    341 C         169.4551  171.3518  167.9795 C.3      24        0    0.0000
    342 C         169.8281  172.8101  168.2657 C.3      24        0    0.0000
    343 C         168.6538  173.7926  168.3089 C.3      24        0    0.0000
    344 C         170.7027  172.7638  169.5338 C.3      24        0    0.0000
    345 C         171.0762  171.2817  169.7324 C.3      24        0    0.0000
    346 C         172.5024  171.0205  170.2264 C.3      24        0    0.0000
    347 H         170.4976  169.5243  168.5567 H        24        0    0.0000
    348 H         171.4819  170.6935  167.6587 H        24        0    0.0000
    349 H         169.2258  171.1858  166.9223 H        24        0    0.0000
    350 H         168.5930  171.0233  168.5703 H        24        0    0.0000
    351 H         170.4810  173.1396  167.4434 H        24        0    0.0000
    352 H         168.3524  174.0356  167.2831 H        24        0    0.0000
    353 H         167.7943  173.3034  168.7823 H        24        0    0.0000
    354 H         170.1818  173.1324  170.4240 H        24        0    0.0000
    355 H         171.5776  173.4089  169.3988 H        24        0    0.0000
    356 H         170.4004  170.8865  170.5058 H        24        0    0.0000
    357 H         172.8083  171.8405  170.8868 H        24        0    0.0000
    358 H         172.5098  170.1076  170.8335 H        24        0    0.0000
    359 C         171.5648  169.2514  166.3260 C.3      25        0    0.0000
    360 C         171.6577  170.0186  167.6361 C.3      25        0    0.0000
    361 C         173.1311  169.8652  168.0193 C.3      25        0    0.0000
    362 C         173.5573  170.8738  169.0889 C.3      25        0    0.0000
    363 C         173.8740  169.9973  166.6772 C.3      25        0    0.0000
    364 C         172.8429  169.6573  165.5814 C.3      25        0    0.0000
    365 C         173.3210  168.6666  164.5124 C.3      25        0    0.0000
    366 H         170.6631  169.5123  165.7630 H        25        0    0.0000
    367 H         171.5310  168.1763  166.5331 H        25        0    0.0000
    368 H         171.3974  171.0724  167.4783 H        25        0    0.0000
    369 H         170.9872  169.6104  168.3985 H        25        0    0.0000
    370 H         173.2840  168.8437  168.3969 H        25        0    0.0000
    371 H         174.5194  170.5793  169.5245 H        25        0    0.0000
    372 H         173.7101  171.8541  168.6221 H        25        0    0.0000
    373 H         174.2345  171.0219  166.5224 H        25        0    0.0000
    374 H         174.7536  169.3454  166.6564 H        25        0    0.0000
    375 H         172.6229  170.5982  165.0551 H        25        0    0.0000
    376 H         173.7620  169.2249  163.6781 H        25        0    0.0000
    377 H         172.4526  168.1325  164.1086 H        25        0    0.0000
    378 C         175.5893  167.4986  161.5235 C.3      26        0    0.0000
    379 C         174.4413  167.1731  162.4821 C.3      26        0    0.0000
    380 C         175.0770  166.9242  163.8616 C.3      26        0    0.0000
    381 C         174.3554  167.6219  165.0212 C.3      26        0    0.0000
    382 C         176.5254  167.3985  163.7059 C.3      26        0    0.0000
    383 C         176.8774  167.0904  162.2466 C.3      26        0    0.0000
    384 C         177.2497  165.6111  162.0317 C.3      26        0    0.0000
    385 H         175.4571  167.0156  160.5506 H        26        0    0.0000
    386 H         175.6045  168.5815  161.3454 H        26        0    0.0000
    387 H         173.7153  167.9936  162.4897 H        26        0    0.0000
    388 H         173.9100  166.2737  162.1495 H        26        0    0.0000
    389 H         175.0906  165.8402  164.0446 H        26        0    0.0000
    390 H         173.8266  166.8731  165.6229 H        26        0    0.0000
    391 H         175.0791  168.1092  165.6848 H        26        0    0.0000
    392 H         177.1965  166.9073  164.4180 H        26        0    0.0000
    393 H         176.5937  168.4804  163.8781 H        26        0    0.0000
    394 H         177.7122  167.7272  161.9272 H        26        0    0.0000
    395 H         176.4764  164.9463  162.4323 H        26        0    0.0000
    396 H         178.1755  165.3863  162.5744 H        26        0    0.0000
    397 C         177.4792  165.2860  160.5272 C.3      27        0    0.0000
    398 C         178.9097  164.8361  160.1974 C.3      27        0    0.0000
    399 H         176.7969  164.4649  160.2728 H        27        0    0.0000
    400 H         177.1795  166.1439  159.9139 H        27        0    0.0000
    401 H         179.5452  165.6893  159.9326 H        27        0    0.0000
    402 H         179.3435  164.3906  161.1018 H        27        0    0.0000
    403 C         177.3387  164.5009  155.7478 C.3      28        0    0.0000
    404 C         178.1508  164.9674  156.9463 C.3      28        0    0.0000
    405 C         177.9104  163.8704  157.9912 C.3      28        0    0.0000
    406 C         178.9916  163.7470  159.0723 C.3      28        0    0.0000
    407 C         177.6276  162.5841  157.1880 C.3      28        0    0.0000
    408 C         177.6232  162.9981  155.7051 C.3      28        0    0.0000
    409 C         176.6158  162.2446  154.8331 C.3      28        0    0.0000
    410 H         176.2722  164.6974  155.9121 H        28        0    0.0000
    411 H         177.6422  165.0059  154.8257 H        28        0    0.0000
    412 H         179.2065  165.0457  156.6651 H        28        0    0.0000
    413 H         177.8256  165.9498  157.3028 H        28        0    0.0000
    414 H         176.9767  164.1247  158.5149 H        28        0    0.0000
    415 H         178.9187  162.7564  159.5369 H        28        0    0.0000
    416 H         179.9792  163.7999  158.5989 H        28        0    0.0000
    417 H         176.6528  162.1816  157.4906 H        28        0    0.0000
    418 H         178.3655  161.7950  157.3669 H        28        0    0.0000
    419 H         178.6369  162.8508  155.3048 H        28        0    0.0000
    420 H         175.6613  162.7835  154.8061 H        28        0    0.0000
    421 H         176.9857  162.2080  153.8015 H        28        0    0.0000
    422 C         172.6469  160.0769  155.6020 C.3      29        0    0.0000
    423 C         173.8179  161.0456  155.6907 C.3      29        0    0.0000
    424 C         174.9616  160.2596  155.0414 C.3      29        0    0.0000
    425 C         176.3696  160.7912  155.3266 C.3      29        0    0.0000
    426 C         174.7153  158.7888  155.4305 C.3      29        0    0.0000
    427 C         173.2810  158.7378  155.9924 C.3      29        0    0.0000
    428 C         172.4698  157.4929  155.6202 C.3      29        0    0.0000
    429 H         171.8318  160.3580  156.2760 H        29        0    0.0000
    430 H         172.2538  160.0642  154.5795 H        29        0    0.0000
    431 H         173.6132  161.9836  155.1652 H        29        0    0.0000
    432 H         174.0240  161.2818  156.7405 H        29        0    0.0000
    433 H         174.8169  160.3269  153.9525 H        29        0    0.0000
    434 H         176.5560  160.7495  156.4063 H        29        0    0.0000
    435 H         177.1051  160.1294  154.8541 H        29        0    0.0000
    436 H         175.4182  158.4252  156.1877 H        29        0    0.0000
    437 H         174.8510  158.1499  154.5511 H        29        0    0.0000
    438 H         173.3713  158.7354  157.0892 H        29        0    0.0000
    439 H         172.7228  156.6807  156.3120 H        29        0    0.0000
    440 H         171.4032  157.7051  155.7600 H        29        0    0.0000
    441 C         171.0353  153.9162  152.7450 C.3      30        0    0.0000
    442 C         172.1393  154.9625  152.7427 C.3      30        0    0.0000
    443 C         171.5994  156.0325  153.6938 C.3      30        0    0.0000
    444 C         172.6940  156.9953  154.1606 C.3      30        0    0.0000
    445 C         170.9339  155.2196  154.8194 C.3      30        0    0.0000
    446 C         170.6240  153.8323  154.2204 C.3      30        0    0.0000
    447 C         169.2058  153.3067  154.4762 C.3      30        0    0.0000
    448 H         171.3853  152.9522  152.3626 H        30        0    0.0000
    449 H         170.2120  154.2514  152.1050 H        30        0    0.0000
    450 H         173.0731  154.5301  153.1225 H        30        0    0.0000
    451 H         172.3275  155.3573  151.7396 H        30        0    0.0000
    452 H         170.8150  156.5964  153.1681 H        30        0    0.0000
    453 H         173.6765  156.5137  154.0902 H        30        0    0.0000
    454 H         172.7211  157.8644  153.4927 H        30        0    0.0000
    455 H         171.6113  155.0963  155.6736 H        30        0    0.0000
    456 H         170.0429  155.7348  155.1935 H        30        0    0.0000
    457 H         171.3097  153.1212  154.7050 H        30        0    0.0000
    458 H         168.5447  153.6544  153.6736 H        30        0    0.0000
    459 H         168.8267  153.7448  155.4073 H        30        0    0.0000
    460 C         167.5672  150.7777  157.8987 C.3      31        0    0.0000
    461 C         167.8422  151.8345  156.8398 C.3      31        0    0.0000
    462 C         168.9776  151.2229  156.0092 C.3      31        0    0.0000
    463 C         169.1031  151.7576  154.5770 C.3      31        0    0.0000
    464 C         168.8081  149.6946  156.1327 C.3      31        0    0.0000
    465 C         167.6353  149.4714  157.1049 C.3      31        0    0.0000
    466 C         167.7822  148.2498  158.0154 C.3      31        0    0.0000
    467 H         168.3402  150.8092  158.6762 H        31        0    0.0000
    468 H         166.5936  150.9210  158.3772 H        31        0    0.0000
    469 H         166.9378  152.0002  156.2445 H        31        0    0.0000
    470 H         168.1307  152.7924  157.2838 H        31        0    0.0000
    471 H         169.9198  151.4760  156.5178 H        31        0    0.0000
    472 H         169.9909  151.3160  154.1089 H        31        0    0.0000
    473 H         168.2392  151.4208  153.9918 H        31        0    0.0000
    474 H         169.7371  149.2632  156.5259 H        31        0    0.0000
    475 H         168.6130  149.2051  155.1727 H        31        0    0.0000
    476 H         166.7125  149.3793  156.5138 H        31        0    0.0000
    477 H         168.4097  148.4959  158.8802 H        31        0    0.0000
    478 H         166.7977  147.9718  158.4102 H        31        0    0.0000
    479 C         168.3876  147.0240  157.2757 C.3      32        0    0.0000
    480 C         167.4181  145.8425  157.1291 C.3      32        0    0.0000
    481 H         168.6628  147.3653  156.2695 H        32        0    0.0000
    482 H         169.3180  146.7178  157.7681 H        32        0    0.0000
    483 H         167.0465  145.5080  158.1048 H        32        0    0.0000
    484 H         166.5440  146.1875  156.5621 H        32        0    0.0000
    485 C         168.4429  141.8063  158.6587 C.3      33        0    0.0000
    486 C         167.7797  143.1628  158.4250 C.3      33        0    0.0000
    487 C         167.5357  143.2793  156.9105 C.3      33        0    0.0000
    488 C         168.0140  144.6228  156.3443 C.3      33        0    0.0000
    489 C         168.2434  142.0573  156.3051 C.3      33        0    0.0000
    490 C         168.1756  140.9818  157.3968 C.3      33        0    0.0000
    491 C         166.8263  140.2441  157.4725 C.3      33        0    0.0000
    492 H         169.5246  141.9548  158.7707 H        33        0    0.0000
    493 H         168.0861  141.3260  159.5752 H        33        0    0.0000
    494 H         168.4089  143.9684  158.8189 H        33        0    0.0000
    495 H         166.8221  143.2129  158.9566 H        33        0    0.0000
    496 H         166.4551  143.1812  156.7347 H        33        0    0.0000
    497 H         167.7526  144.7036  155.2829 H        33        0    0.0000
    498 H         169.1079  144.6726  156.4055 H        33        0    0.0000
    499 H         167.7847  141.7425  155.3627 H        33        0    0.0000
    500 H         169.2956  142.2911  156.0965 H        33        0    0.0000
    501 H         168.9807  140.2492  157.2566 H        33        0    0.0000
    502 H         166.2985  140.2817  156.5135 H        33        0    0.0000
    503 H         166.1816  140.7453  158.2047 H        33        0    0.0000
    504 C         163.7785  136.8713  157.3550 C.3      34        0    0.0000
    505 C         164.8177  137.8987  156.9331 C.3      34        0    0.0000
    506 C         165.6551  138.0796  158.2007 C.3      34        0    0.0000
    507 C         166.9946  138.7629  157.9149 C.3      34        0    0.0000
    508 C         165.7683  136.6540  158.7712 C.3      34        0    0.0000
    509 C         164.5876  135.8593  158.1762 C.3      34        0    0.0000
    510 C         163.7760  135.0339  159.1826 C.3      34        0    0.0000
    511 H         163.2931  136.4033  156.4928 H        34        0    0.0000
    512 H         163.0013  137.3606  157.9521 H        34        0    0.0000
    513 H         165.4263  137.5067  156.1091 H        34        0    0.0000
    514 H         164.3575  138.8354  156.6039 H        34        0    0.0000
    515 H         165.0772  138.6885  158.9112 H        34        0    0.0000
    516 H         167.6372  138.7219  158.8023 H        34        0    0.0000
    517 H         167.5183  138.2161  157.1217 H        34        0    0.0000
    518 H         166.7086  136.1780  158.4662 H        34        0    0.0000
    519 H         165.7641  136.6743  159.8661 H        34        0    0.0000
    520 H         165.0204  135.1408  157.4641 H        34        0    0.0000
    521 H         162.9278  134.5707  158.6647 H        34        0    0.0000
    522 H         163.3531  135.7084  159.9368 H        34        0    0.0000
    523 C         167.5692  132.4869  158.0951 C.3      35        0    0.0000
    524 C         166.6000  133.6395  158.3707 C.3      35        0    0.0000
    525 C         165.3201  133.0022  158.9272 C.3      35        0    0.0000
    526 C         164.5898  133.9239  159.9078 C.3      35        0    0.0000
    527 C         165.8217  131.6893  159.5377 C.3      35        0    0.0000
    528 C         166.8345  131.2011  158.4965 C.3      35        0    0.0000
    529 C         167.7916  130.1160  158.9974 C.3      35        0    0.0000
    530 H         167.8661  132.4569  157.0412 H        35        0    0.0000
    531 H         168.4821  132.6285  158.6859 H        35        0    0.0000
    532 H         166.3901  134.2121  157.4608 H        35        0    0.0000
    533 H         167.0508  134.3308  159.0928 H        35        0    0.0000
    534 H         164.6592  132.7653  158.0806 H        35        0    0.0000
    535 H         165.3225  134.4035  160.5678 H        35        0    0.0000
    536 H         163.9196  133.3409  160.5504 H        35        0    0.0000
    537 H         165.0095  130.9708  159.6864 H        35        0    0.0000
    538 H         166.3075  131.8664  160.5054 H        35        0    0.0000
    539 H         166.2846  130.8324  157.6183 H        35        0    0.0000
    540 H         168.1449  130.3570  160.0068 H        35        0    0.0000
    541 H         168.6770  130.0878  158.3509 H        35        0    0.0000
    542 C         163.6718  129.1414  160.4988 C.3      36        0    0.0000
    543 C         165.0886  129.6508  160.2735 C.3      36        0    0.0000
    544 C         165.6161  128.7197  159.1770 C.3      36        0    0.0000
    545 C         167.1377  128.7070  159.0010 C.3      36        0    0.0000
    546 C         164.9687  127.3502  159.4614 C.3      36        0    0.0000
    547 C         163.8499  127.6196  160.4865 C.3      36        0    0.0000
    548 C         162.5651  126.8090  160.2902 C.3      36        0    0.0000
    549 H         163.2545  129.4991  161.4452 H        36        0    0.0000
    550 H         163.0211  129.4868  159.6879 H        36        0    0.0000
    551 H         165.1012  130.7002  159.9630 H        36        0    0.0000
    552 H         165.6651  129.5634  161.2010 H        36        0    0.0000
    553 H         165.1945  129.0768  158.2252 H        36        0    0.0000
    554 H         167.5862  128.1126  159.8059 H        36        0    0.0000
    555 H         167.3855  128.2012  158.0603 H        36        0    0.0000
    556 H         165.6758  126.6225  159.8741 H        36        0    0.0000
    557 H         164.5945  126.9208  158.5258 H        36        0    0.0000
    558 H         164.2498  127.3374  161.4722 H        36        0    0.0000
    559 H         161.7177  127.3787  160.6897 H        36        0    0.0000
    560 H         162.3816  126.6825  159.2166 H        36        0    0.0000
    561 C         166.2786  125.7559  160.8703 C.3      37        0    0.0000
    562 C         165.0032  125.4889  160.0672 C.3      37        0    0.0000
    563 C         164.0049  124.8271  161.0338 C.3      37        0    0.0000
    564 C         162.5854  125.4038  160.9634 C.3      37        0    0.0000
    565 C         164.6384  125.0041  162.4175 C.3      37        0    0.0000
    566 C         166.1480  124.9408  162.1615 C.3      37        0    0.0000
    567 C         166.6596  123.4947  162.0189 C.3      37        0    0.0000
    568 H         167.1792  125.5268  160.2926 H        37        0    0.0000
    569 H         166.3207  126.8235  161.1216 H        37        0    0.0000
    570 H         164.6261  126.4249  159.6406 H        37        0    0.0000
    571 H         165.2141  124.8133  159.2300 H        37        0    0.0000
    572 H         163.9692  123.7514  160.8099 H        37        0    0.0000
    573 H         161.9479  124.7290  160.3797 H        37        0    0.0000
    574 H         162.1474  125.4664  161.9662 H        37        0    0.0000
    575 H         164.2950  124.2434  163.1261 H        37        0    0.0000
    576 H         164.3789  125.9861  162.8337 H        37        0    0.0000
    577 H         166.6815  125.4377  162.9817 H        37        0    0.0000
    578 H         167.5728  123.4557  161.4148 H        37        0    0.0000
    579 H         165.9066  122.8921  161.4972 H        37        0    0.0000
    580 C         165.3798  123.2719  166.8333 C.3      38        0    0.0000
    581 C         165.5650  122.4438  165.5711 C.3      38        0    0.0000
    582 C         166.1313  123.4505  164.5617 C.3      38        0    0.0000
    583 C         166.9301  122.8386  163.4039 C.3      38        0    0.0000
    584 C         166.8833  124.5042  165.4006 C.3      38        0    0.0000
    585 C         166.6504  124.1234  166.8742 C.3      38        0    0.0000
    586 C         166.5182  125.3121  167.8294 C.3      38        0    0.0000
    587 H         164.4848  123.9002  166.7474 H        38        0    0.0000
    588 H         165.2736  122.6441  167.7233 H        38        0    0.0000
    589 H         166.2619  121.6227  165.7710 H        38        0    0.0000
    590 H         164.6224  122.0064  165.2274 H        38        0    0.0000
    591 H         165.2727  123.9665  164.1066 H        38        0    0.0000
    592 H         168.0004  122.9205  163.6278 H        38        0    0.0000
    593 H         166.7039  121.7677  163.3392 H        38        0    0.0000
    594 H         166.4729  125.4969  165.1777 H        38        0    0.0000
    595 H         167.9544  124.5467  165.1770 H        38        0    0.0000
    596 H         167.4836  123.4831  167.1988 H        38        0    0.0000
    597 H         165.5641  125.2607  168.3673 H        38        0    0.0000
    598 H         167.3095  125.2582  168.5865 H        38        0    0.0000
    599 C         163.3882  128.5427  167.8228 C.3      39        0    0.0000
    600 C         164.1811  127.2447  167.7601 C.3      39        0    0.0000
    601 C         165.6233  127.7331  167.5895 C.3      39        0    0.0000
    602 C         166.6203  126.6796  167.0973 C.3      39        0    0.0000
    603 C         165.5212  129.0059  166.7263 C.3      39        0    0.0000
    604 C         164.0280  129.3877  166.7164 C.3      39        0    0.0000
    605 C         163.7299  130.8888  166.7801 C.3      39        0    0.0000
    606 H         162.3203  128.3782  167.6491 H        39        0    0.0000
    607 H         163.5056  129.0006  168.8112 H        39        0    0.0000
    608 H         164.0547  126.6443  168.6664 H        39        0    0.0000
    609 H         163.8447  126.6465  166.9061 H        39        0    0.0000
    610 H         165.9715  128.0526  168.5834 H        39        0    0.0000
    611 H         166.4682  126.5167  166.0237 H        39        0    0.0000
    612 H         167.6391  127.0673  167.2158 H        39        0    0.0000
    613 H         165.8664  128.8518  165.6982 H        39        0    0.0000
    614 H         166.1581  129.7888  167.1518 H        39        0    0.0000
    615 H         163.6161  129.0276  165.7616 H        39        0    0.0000
    616 H         164.6719  131.4359  166.9046 H        39        0    0.0000
    617 H         163.3030  131.2103  165.8226 H        39        0    0.0000
    618 C         163.8878  134.7277  168.7897 C.3      40        0    0.0000
    619 C         163.1263  133.4827  169.2511 C.3      40        0    0.0000
    620 C         162.5572  132.8200  167.9838 C.3      40        0    0.0000
    621 C         162.7568  131.3005  167.9254 C.3      40        0    0.0000
    622 C         163.2542  133.5448  166.8279 C.3      40        0    0.0000
    623 C         163.4617  134.9747  167.3384 C.3      40        0    0.0000
    624 C         162.1873  135.8319  167.2191 C.3      40        0    0.0000
    625 H         163.7135  135.5807  169.4523 H        40        0    0.0000
    626 H         164.9640  134.5139  168.8171 H        40        0    0.0000
    627 H         163.7947  132.8216  169.8136 H        40        0    0.0000
    628 H         162.3075  133.7638  169.9237 H        40        0    0.0000
    629 H         161.4825  133.0455  167.9295 H        40        0    0.0000
    630 H         163.1734  130.9521  168.8780 H        40        0    0.0000
    631 H         161.7943  130.7926  167.7948 H        40        0    0.0000
    632 H         162.6670  133.5039  165.9047 H        40        0    0.0000
    633 H         164.2293  133.0850  166.6212 H        40        0    0.0000
    634 H         164.2760  135.4510  166.7777 H        40        0    0.0000
    635 H         162.0457  136.4562  168.1083 H        40        0    0.0000
    636 H         161.3122  135.1751  167.1484 H        40        0    0.0000
    637 C         164.3840  139.7377  165.6843 C.3      41        0    0.0000
    638 C         164.0828  138.4478  166.4514 C.3      41        0    0.0000
    639 C         162.5732  138.1882  166.3003 C.3      41        0    0.0000
    640 C         162.2166  136.7374  165.9537 C.3      41        0    0.0000
    641 C         162.1224  139.1743  165.2180 C.3      41        0    0.0000
    642 C         163.0279  140.3960  165.4079 C.3      41        0    0.0000
    643 C         162.5520  141.3071  166.5554 C.3      41        0    0.0000
    644 H         165.0843  140.3801  166.2266 H        41        0    0.0000
    645 H         164.8590  139.4781  164.7296 H        41        0    0.0000
    646 H         164.6968  137.6282  166.0620 H        41        0    0.0000
    647 H         164.3357  138.5665  167.5115 H        41        0    0.0000
    648 H         162.0794  138.4663  167.2424 H        41        0    0.0000
    649 H         161.2268  136.7093  165.4828 H        41        0    0.0000
    650 H         162.9272  136.3322  165.2240 H        41        0    0.0000
    651 H         161.0581  139.4167  165.3016 H        41        0    0.0000
    652 H         162.2879  138.7480  164.2200 H        41        0    0.0000
    653 H         163.0672  140.9734  164.4755 H        41        0    0.0000
    654 H         163.3318  142.0210  166.8432 H        41        0    0.0000
    655 H         162.3373  140.6961  167.4401 H        41        0    0.0000
    656 C         161.4698  140.1569  163.0604 C.3      42        0    0.0000
    657 C         161.1129  140.1259  164.5457 C.3      42        0    0.0000
    658 C         160.6004  141.5312  164.9055 C.3      42        0    0.0000
    659 C         161.2574  142.0836  166.1773 C.3      42        0    0.0000
    660 C         160.8607  142.3760  163.6488 C.3      42        0    0.0000
    661 C         160.7641  141.3858  162.4813 C.3      42        0    0.0000
    662 C         159.3231  141.0635  162.0452 C.3      42        0    0.0000
    663 H         162.5554  140.2825  162.9588 H        42        0    0.0000
    664 H         161.2036  139.2239  162.5536 H        42        0    0.0000
    665 H         161.9813  139.8232  165.1409 H        42        0    0.0000
    666 H         160.3231  139.3881  164.7303 H        42        0    0.0000
    667 H         159.5148  141.4637  165.0638 H        42        0    0.0000
    668 H         160.5510  142.0532  167.0150 H        42        0    0.0000
    669 H         161.5185  143.1373  166.0216 H        42        0    0.0000
    670 H         160.1587  143.2112  163.5631 H        42        0    0.0000
    671 H         161.8732  142.7994  163.6775 H        42        0    0.0000
    672 H         161.3273  141.7628  161.6180 H        42        0    0.0000
    673 H         158.8049  140.4614  162.7993 H        42        0    0.0000
    674 H         159.3495  140.4622  161.1284 H        42        0    0.0000
    675 C         158.5001  142.3499  161.7525 C.3      43        0    0.0000
    676 C         157.3257  142.1331  160.7875 C.3      43        0    0.0000
    677 H         158.0930  142.6909  162.7131 H        43        0    0.0000
    678 H         159.1681  143.1428  161.3961 H        43        0    0.0000
    679 H         157.6395  141.5778  159.8958 H        43        0    0.0000
    680 H         156.5771  141.5125  161.2963 H        43        0    0.0000
    681 C         153.9150  142.5847  157.8148 C.3      44        0    0.0000
    682 C         155.2336  142.2685  158.5068 C.3      44        0    0.0000
    683 C         155.2391  143.2397  159.6918 C.3      44        0    0.0000
    684 C         156.6012  143.4559  160.3584 C.3      44        0    0.0000
    685 C         154.5424  144.5139  159.1754 C.3      44        0    0.0000
    686 C         153.8712  144.1159  157.8463 C.3      44        0    0.0000
    687 C         152.4963  144.7397  157.5881 C.3      44        0    0.0000
    688 H         153.8854  142.1933  156.7932 H        44        0    0.0000
    689 H         153.0866  142.1371  158.3748 H        44        0    0.0000
    690 H         155.2852  141.2243  158.8307 H        44        0    0.0000
    691 H         156.0661  142.4529  157.8189 H        44        0    0.0000
    692 H         154.5800  142.8088  160.4605 H        44        0    0.0000
    693 H         157.2530  144.0073  159.6705 H        44        0    0.0000
    694 H         156.4704  144.0890  161.2440 H        44        0    0.0000
    695 H         155.2406  145.3395  159.0001 H        44        0    0.0000
    696 H         153.8264  144.8687  159.9245 H        44        0    0.0000
    697 H         154.5315  144.4705  157.0404 H        44        0    0.0000
    698 H         152.1134  144.3769  156.6269 H        44        0    0.0000
    699 H         151.7956  144.3938  158.3572 H        44        0    0.0000
    700 C         155.8235  147.4490  156.2272 C.3      45        0    0.0000
    701 C         154.8245  146.3345  156.5492 C.3      45        0    0.0000
    702 C         153.9052  146.8844  157.6477 C.3      45        0    0.0000
    703 C         152.4928  146.2979  157.5723 C.3      45        0    0.0000
    704 C         153.9792  148.4004  157.4372 C.3      45        0    0.0000
    705 C         155.4663  148.6258  157.1446 C.3      45        0    0.0000
    706 C         155.7934  149.9797  156.5087 C.3      45        0    0.0000
    707 H         156.8555  147.1213  156.3924 H        45        0    0.0000
    708 H         155.7353  147.7238  155.1693 H        45        0    0.0000
    709 H         155.3342  145.4242  156.8828 H        45        0    0.0000
    710 H         154.2599  146.0779  155.6448 H        45        0    0.0000
    711 H         154.3540  146.6433  158.6224 H        45        0    0.0000
    712 H         152.0093  146.6362  156.6481 H        45        0    0.0000
    713 H         151.8818  146.6699  158.4031 H        45        0    0.0000
    714 H         153.6482  148.9528  158.3224 H        45        0    0.0000
    715 H         153.3600  148.7095  156.5858 H        45        0    0.0000
    716 H         156.0295  148.5123  158.0825 H        45        0    0.0000
    717 H         156.3415  149.8365  155.5701 H        45        0    0.0000
    718 H         156.4543  150.5437  157.1777 H        45        0    0.0000
    719 C         151.5859  149.6806  158.3419 C.3      46        0    0.0000
    720 C         153.0878  149.7568  158.1139 C.3      46        0    0.0000
    721 C         153.2066  150.1436  156.6343 C.3      46        0    0.0000
    722 C         154.5210  150.8292  156.2399 C.3      46        0    0.0000
    723 C         151.9233  150.9339  156.3055 C.3      46        0    0.0000
    724 C         151.0614  150.9000  157.5809 C.3      46        0    0.0000
    725 C         149.5532  150.8204  157.3324 C.3      46        0    0.0000
    726 H         151.1849  148.7498  157.9227 H        46        0    0.0000
    727 H         151.3307  149.7154  159.4055 H        46        0    0.0000
    728 H         153.5205  150.5152  158.7753 H        46        0    0.0000
    729 H         153.5824  148.8042  158.3284 H        46        0    0.0000
    730 H         153.1578  149.2105  156.0535 H        46        0    0.0000
    731 H         154.4853  151.0797  155.1730 H        46        0    0.0000
    732 H         154.6069  151.7780  156.7825 H        46        0    0.0000
    733 H         151.4099  150.4476  155.4666 H        46        0    0.0000
    734 H         152.1212  151.9667  156.0000 H        46        0    0.0000
    735 H         151.2886  151.7989  158.1724 H        46        0    0.0000
    736 H         149.2107  149.7819  157.4137 H        46        0    0.0000
    737 H         149.0275  151.3867  158.1104 H        46        0    0.0000
    738 C         145.4674  152.3295  155.8231 C.3      47        0    0.0000
    739 C         146.5832  151.4152  156.3093 C.3      47        0    0.0000
    740 C         147.8491  152.1995  155.9490 C.3      47        0    0.0000
    741 C         149.1470  151.3862  155.9427 C.3      47        0    0.0000
    742 C         147.5146  152.9272  154.6322 C.3      47        0    0.0000
    743 C         145.9870  152.8099  154.4641 C.3      47        0    0.0000
    744 C         145.2885  154.0479  153.8934 C.3      47        0    0.0000
    745 H         144.5139  151.7996  155.7349 H        47        0    0.0000
    746 H         145.3329  153.1567  156.5288 H        47        0    0.0000
    747 H         146.5125  151.2196  157.3838 H        47        0    0.0000
    748 H         146.5299  150.4550  155.7845 H        47        0    0.0000
    749 H         147.9718  152.9776  156.7175 H        47        0    0.0000
    750 H         149.0431  150.5515  155.2393 H        47        0    0.0000
    751 H         149.9625  152.0154  155.5666 H        47        0    0.0000
    752 H         148.0134  152.4853  153.7629 H        47        0    0.0000
    753 H         147.8580  153.9657  154.6904 H        47        0    0.0000
    754 H         145.8097  151.9933  153.7481 H        47        0    0.0000
    755 H         145.9566  154.5363  153.1742 H        47        0    0.0000
    756 H         144.4000  153.7321  153.3338 H        47        0    0.0000
    757 C         141.6109  156.4821  153.5981 C.3      48        0    0.0000
    758 C         142.8146  155.5648  153.4455 C.3      48        0    0.0000
    759 C         143.8076  156.1004  154.4848 C.3      48        0    0.0000
    760 C         144.8587  155.0926  154.9668 C.3      48        0    0.0000
    761 C         142.9465  156.7399  155.5935 C.3      48        0    0.0000
    762 C         141.4867  156.6348  155.1155 C.3      48        0    0.0000
    763 C         140.5985  157.8188  155.5055 C.3      48        0    0.0000
    764 H         141.8066  157.4485  153.1177 H        48        0    0.0000
    765 H         140.7094  156.0529  153.1501 H        48        0    0.0000
    766 H         142.5162  154.5316  153.6532 H        48        0    0.0000
    767 H         143.2267  155.5968  152.4320 H        48        0    0.0000
    768 H         144.3623  156.9210  154.0060 H        48        0    0.0000
    769 H         145.7489  155.6392  155.3005 H        48        0    0.0000
    770 H         144.4699  154.5609  155.8433 H        48        0    0.0000
    771 H         143.2481  157.7871  155.7202 H        48        0    0.0000
    772 H         143.0702  156.2546  156.5673 H        48        0    0.0000
    773 H         141.0589  155.7064  155.5210 H        48        0    0.0000
    774 H         140.8439  158.6940  154.8922 H        48        0    0.0000
    775 H         139.5513  157.5710  155.2952 H        48        0    0.0000
    776 C         140.5943  161.4738  156.9772 C.3      49        0    0.0000
    777 C         140.3427  160.4557  158.0926 C.3      49        0    0.0000
    778 C         139.6826  159.2396  157.4335 C.3      49        0    0.0000
    779 C         140.7304  158.1936  157.0084 C.3      49        0    0.0000
    780 C         138.9171  159.8813  156.2693 C.3      49        0    0.0000
    781 C         139.8744  160.9449  155.7256 C.3      49        0    0.0000
    782 C         139.1484  162.0199  154.9087 C.3      49        0    0.0000
    783 H         140.2274  162.4592  157.2860 H        49        0    0.0000
    784 H         141.6681  161.5740  156.7819 H        49        0    0.0000
    785 H         139.6487  160.8938  158.8211 H        49        0    0.0000
    786 H         141.2610  160.2076  158.6346 H        49        0    0.0000
    787 H         138.9782  158.7734  158.1343 H        49        0    0.0000
    788 H         140.5921  157.2827  157.6033 H        49        0    0.0000
    789 H         141.7477  158.5461  157.2090 H        49        0    0.0000
    790 H         138.0024  160.3528  156.6520 H        49        0    0.0000
    791 H         138.6184  159.1679  155.4955 H        49        0    0.0000
    792 H         140.6157  160.4485  155.0837 H        49        0    0.0000
    793 H         139.2916  161.8451  153.8360 H        49        0    0.0000
    794 H         139.5826  163.0017  155.1317 H        49        0    0.0000
    795 C         137.6269  162.0618  155.2304 C.3      50        0    0.0000
    796 C         136.9193  163.3311  154.7347 C.3      50        0    0.0000
    797 H         137.1725  161.1996  154.7258 H        50        0    0.0000
    798 H         137.4724  161.9130  156.3055 H        50        0    0.0000
    799 H         137.5200  164.2263  154.9339 H        50        0    0.0000
    800 H         136.8153  163.2592  153.6445 H        50        0    0.0000
    801 C         133.4581  165.9375  153.2045 C.3      51        0    0.0000
    802 C         134.6324  164.9810  153.3453 C.3      51        0    0.0000
    803 C         134.7774  164.8124  154.8631 C.3      51        0    0.0000
    804 C         135.4755  163.5235  155.3153 C.3      51        0    0.0000
    805 C         133.3670  165.0403  155.4447 C.3      51        0    0.0000
    806 C         132.4698  165.4236  154.2536 C.3      51        0    0.0000
    807 C         131.3832  166.4524  154.5756 C.3      51        0    0.0000
    808 H         133.7750  166.9634  153.4283 H        51        0    0.0000
    809 H         133.0356  165.9217  152.1952 H        51        0    0.0000
    810 H         134.3963  164.0355  152.8452 H        51        0    0.0000
    811 H         135.5430  165.3823  152.8897 H        51        0    0.0000
    812 H         135.4022  165.6445  155.2204 H        51        0    0.0000
    813 H         135.5338  163.5160  156.4103 H        51        0    0.0000
    814 H         134.8600  162.6629  155.0278 H        51        0    0.0000
    815 H         133.4124  165.8498  156.1839 H        51        0    0.0000
    816 H         132.9683  164.1611  155.9617 H        51        0    0.0000
    817 H         132.0030  164.5062  153.8665 H        51        0    0.0000
    818 H         130.4309  166.1509  154.1234 H        51        0    0.0000
    819 H         131.2215  166.4813  155.6597 H        51        0    0.0000
    820 C         131.3795  170.0974  156.4817 C.3      52        0    0.0000
    821 C         130.4568  168.9881  155.9697 C.3      52        0    0.0000
    822 C         130.6658  168.9111  154.4533 C.3      52        0    0.0000
    823 C         131.7518  167.8817  154.0878 C.3      52        0    0.0000
    824 C         131.0223  170.3617  154.1042 C.3      52        0    0.0000
    825 C         131.9431  170.8109  155.2416 C.3      52        0    0.0000
    826 C         132.0153  172.3371  155.3651 C.3      52        0    0.0000
    827 H         130.8170  170.7745  157.1346 H        52        0    0.0000
    828 H         132.1958  169.6748  157.0787 H        52        0    0.0000
    829 H         129.4167  169.2693  156.1780 H        52        0    0.0000
    830 H         130.6394  168.0367  156.4796 H        52        0    0.0000
    831 H         129.7262  168.6269  153.9624 H        52        0    0.0000
    832 H         132.6978  168.1729  154.5601 H        52        0    0.0000
    833 H         131.9345  167.8634  153.0081 H        52        0    0.0000
    834 H         130.1072  170.9682  154.0936 H        52        0    0.0000
    835 H         131.4995  170.4720  153.1258 H        52        0    0.0000
    836 H         132.9516  170.4202  155.0461 H        52        0    0.0000
    837 H         131.0740  172.7323  155.7642 H        52        0    0.0000
    838 H         132.1483  172.7770  154.3696 H        52        0    0.0000
    839 C         133.1955  172.7889  156.2725 C.3      53        0    0.0000
    840 C         133.0533  174.2181  156.8153 C.3      53        0    0.0000
    841 H         134.1027  172.7474  155.6563 H        53        0    0.0000
    842 H         133.3349  172.0658  157.0846 H        53        0    0.0000
    843 H         133.3276  174.9156  156.0136 H        53        0    0.0000
    844 H         132.0139  174.4415  157.0832 H        53        0    0.0000
    845 C         134.4995  178.1742  158.8841 C.3      54        0    0.0000
    846 C         135.0244  176.7607  158.6843 C.3      54        0    0.0000
    847 C         133.7438  175.9258  158.6181 C.3      54        0    0.0000
    848 C         133.9919  174.5341  158.0310 C.3      54        0    0.0000
    849 C         132.7756  176.8045  157.8050 C.3      54        0    0.0000
    850 C         133.3005  178.2496  157.9302 C.3      54        0    0.0000
    851 C         132.2453  179.3046  158.2863 C.3      54        0    0.0000
    852 H         135.2570  178.9284  158.6489 H        54        0    0.0000
    853 H         134.2045  178.3108  159.9301 H        54        0    0.0000
    854 H         135.5891  176.6944  157.7463 H        54        0    0.0000
    855 H         135.6805  176.4479  159.5023 H        54        0    0.0000
    856 H         133.3438  175.8276  159.6378 H        54        0    0.0000
    857 H         135.0373  174.4379  157.7147 H        54        0    0.0000
    858 H         133.8276  173.7784  158.8083 H        54        0    0.0000
    859 H         132.7723  176.5166  156.7463 H        54        0    0.0000
    860 H         131.7493  176.6873  158.1684 H        54        0    0.0000
    861 H         133.6941  178.5272  156.9410 H        54        0    0.0000
    862 H         131.6107  179.4863  157.4108 H        54        0    0.0000
    863 H         132.7507  180.2517  158.5099 H        54        0    0.0000
    864 C         128.6943  181.6362  159.4187 C.3      55        0    0.0000
    865 C         129.9930  181.0537  158.8825 C.3      55        0    0.0000
    866 C         130.4104  180.0510  159.9657 C.3      55        0    0.0000
    867 C         131.3404  178.9261  159.4939 C.3      55        0    0.0000
    868 C         129.0991  179.5892  160.6341 C.3      55        0    0.0000
    869 C         127.9727  180.4082  159.9775 C.3      55        0    0.0000
    870 C         126.8271  180.7902  160.9181 C.3      55        0    0.0000
    871 H         128.9039  182.3664  160.2100 H        55        0    0.0000
    872 H         128.1154  182.1358  158.6359 H        55        0    0.0000
    873 H         129.8056  180.5670  157.9192 H        55        0    0.0000
    874 H         130.7529  181.8256  158.7252 H        55        0    0.0000
    875 H         130.9689  180.6152  160.7275 H        55        0    0.0000
    876 H         131.9807  178.6198  160.3297 H        55        0    0.0000
    877 H         130.7365  178.0516  159.2240 H        55        0    0.0000
    878 H         129.1583  179.7883  161.7114 H        55        0    0.0000
    879 H         128.9136  178.5159  160.5201 H        55        0    0.0000
    880 H         127.5750  179.8282  159.1320 H        55        0    0.0000
    881 H         125.8630  180.6581  160.4129 H        55        0    0.0000
    882 H         126.8256  180.1133  161.7807 H        55        0    0.0000
    883 C         126.9399  182.2530  161.4319 C.3      56        0    0.0000
    884 C         126.1250  182.5323  162.7028 C.3      56        0    0.0000
    885 H         126.5565  182.9000  160.6325 H        56        0    0.0000
    886 H         127.9953  182.5161  161.5689 H        56        0    0.0000
    887 H         125.2811  183.1792  162.4308 H        56        0    0.0000
    888 H         125.6943  181.6106  163.1112 H        56        0    0.0000
    889 C         126.1634  181.8857  167.1747 C.3      57        0    0.0000
    890 C         125.8061  181.8948  165.6864 C.3      57        0    0.0000
    891 C         126.1690  183.2932  165.1552 C.3      57        0    0.0000
    892 C         126.9274  183.2819  163.8222 C.3      57        0    0.0000
    893 C         126.9840  183.9311  166.2848 C.3      57        0    0.0000
    894 C         126.3836  183.3501  167.5694 C.3      57        0    0.0000
    895 C         125.0854  184.0663  167.9874 C.3      57        0    0.0000
    896 H         125.4020  181.3767  167.7733 H        57        0    0.0000
    897 H         127.1014  181.3319  167.3093 H        57        0    0.0000
    898 H         126.3400  181.0908  165.1678 H        57        0    0.0000
    899 H         124.7338  181.7118  165.5503 H        57        0    0.0000
    900 H         125.2400  183.8691  165.0374 H        57        0    0.0000
    901 H         127.1008  184.3138  163.4944 H        57        0    0.0000
    902 H         127.9127  182.8180  163.9462 H        57        0    0.0000
    903 H         126.9429  185.0247  166.2530 H        57        0    0.0000
    904 H         128.0387  183.6367  166.2081 H        57        0    0.0000
    905 H         127.1172  183.4196  168.3826 H        57        0    0.0000
    906 H         124.7269  183.7020  168.9566 H        57        0    0.0000
    907 H         124.2985  183.8502  167.2551 H        57        0    0.0000
    908 C         125.2733  185.6096  168.0551 C.3      58        0    0.0000
    909 C         124.9524  186.2176  169.4280 C.3      58        0    0.0000
    910 H         126.3291  185.8103  167.8323 H        58        0    0.0000
    911 H         124.6889  186.0882  167.2605 H        58        0    0.0000
    912 H         124.4671  187.1955  169.3276 H        58        0    0.0000
    913 H         124.2322  185.5601  169.9316 H        58        0    0.0000
    914 C         125.3336  188.8892  172.2572 C.3      59        0    0.0000
    915 C         125.4967  188.7523  170.7410 C.3      59        0    0.0000
    916 C         126.6732  187.7970  170.5126 C.3      59        0    0.0000
    917 C         126.1947  186.3392  170.3770 C.3      59        0    0.0000
    918 C         127.5490  188.0663  171.7429 C.3      59        0    0.0000
    919 C         126.5521  188.2027  172.8964 C.3      59        0    0.0000
    920 C         127.1462  188.9511  174.0951 C.3      59        0    0.0000
    921 H         125.2606  189.9488  172.5273 H        59        0    0.0000
    922 H         124.4085  188.4050  172.5906 H        59        0    0.0000
    923 H         125.7424  189.7362  170.3217 H        59        0    0.0000
    924 H         124.5715  188.4209  170.2586 H        59        0    0.0000
    925 H         127.2113  188.0815  169.5992 H        59        0    0.0000
    926 H         125.9102  185.9599  171.3660 H        59        0    0.0000
    927 H         126.9977  185.6897  170.0126 H        59        0    0.0000
    928 H         128.0966  189.0071  171.6001 H        59        0    0.0000
    929 H         128.2885  187.2829  171.9338 H        59        0    0.0000
    930 H         126.2529  187.1950  173.2171 H        59        0    0.0000
    931 H         128.2159  188.7311  174.1899 H        59        0    0.0000
    932 H         126.6666  188.6011  175.0169 H        59        0    0.0000
    933 C         128.5094  192.8665  176.4742 C.3      60        0    0.0000
    934 C         128.6386  191.6829  175.5276 C.3      60        0    0.0000
    935 C         127.1846  191.2621  175.2791 C.3      60        0    0.0000
    936 C         126.9398  190.4886  173.9774 C.3      60        0    0.0000
    937 C         126.3437  192.5432  175.4559 C.3      60        0    0.0000
    938 C         127.3280  193.6444  175.8908 C.3      60        0    0.0000
    939 C         126.7563  194.6575  176.8857 C.3      60        0    0.0000
    940 H         128.2904  192.5176  177.4907 H        60        0    0.0000
    941 H         129.4240  193.4664  176.5073 H        60        0    0.0000
    942 H         129.1392  192.0030  174.6074 H        60        0    0.0000
    943 H         129.2297  190.8723  175.9654 H        60        0    0.0000
    944 H         126.9014  190.5855  176.0992 H        60        0    0.0000
    945 H         125.9151  190.6800  173.6371 H        60        0    0.0000
    946 H         127.6069  190.8772  173.1988 H        60        0    0.0000
    947 H         125.5812  192.3663  176.2247 H        60        0    0.0000
    948 H         125.8124  192.8375  174.5447 H        60        0    0.0000
    949 H         127.6739  194.1709  174.9894 H        60        0    0.0000
    950 H         126.9934  194.3544  177.9125 H        60        0    0.0000
    951 H         127.2350  195.6311  176.7267 H        60        0    0.0000
    952 C         124.3392  198.4510  176.1650 C.3      61        0    0.0000
    953 C         125.3689  197.3208  176.2421 C.3      61        0    0.0000
    954 C         124.7503  196.2346  177.1320 C.3      61        0    0.0000
    955 C         125.2178  194.8289  176.7447 C.3      61        0    0.0000
    956 C         123.2446  196.4724  176.9760 C.3      61        0    0.0000
    957 C         123.1414  198.0008  177.0116 C.3      61        0    0.0000
    958 C         121.8160  198.5631  176.4902 C.3      61        0    0.0000
    959 H         124.7517  199.3944  176.5386 H        61        0    0.0000
    960 H         124.0529  198.6133  175.1190 H        61        0    0.0000
    961 H         126.3197  197.6732  176.6560 H        61        0    0.0000
    962 H         125.5737  196.9441  175.2328 H        61        0    0.0000
    963 H         125.0324  196.4439  178.1742 H        61        0    0.0000
    964 H         124.9386  194.6287  175.7033 H        61        0    0.0000
    965 H         124.7090  194.0764  177.3585 H        61        0    0.0000
    966 H         122.6710  196.0049  177.7826 H        61        0    0.0000
    967 H         122.8813  196.0762  176.0195 H        61        0    0.0000
    968 H         123.3055  198.3395  178.0450 H        61        0    0.0000
    969 H         121.0359  197.7937  176.5268 H        61        0    0.0000
    970 H         121.9320  198.8456  175.4370 H        61        0    0.0000
    971 C         121.3490  199.8114  177.2880 C.3      62        0    0.0000
    972 C         119.8308  199.8797  177.5070 C.3      62        0    0.0000
    973 H         121.8328  199.7579  178.2717 H        62        0    0.0000
    974 H         121.7234  200.7208  176.8036 H        62        0    0.0000
    975 H         119.3083  200.1743  176.5894 H        62        0    0.0000
    976 H         119.4775  198.8717  177.7594 H        62        0    0.0000
    977 C         122.8452  201.5004  179.7494 C.3      63        0    0.0000
    978 C         121.8877  201.3726  178.5656 C.3      63        0    0.0000
    979 C         120.5025  201.8136  179.0691 C.3      63        0    0.0000
    980 C         119.3988  200.8190  178.6859 C.3      63        0    0.0000
    981 C         120.6784  202.0006  180.5840 C.3      63        0    0.0000
    982 C         122.1458  202.4101  180.7628 C.3      63        0    0.0000
    983 C         122.4243  203.8979  180.4813 C.3      63        0    0.0000
    984 H         122.9921  200.5085  180.1956 H        63        0    0.0000
    985 H         123.8304  201.8666  179.4443 H        63        0    0.0000
    986 H         121.8943  200.3480  178.1779 H        63        0    0.0000
    987 H         122.2074  202.0285  177.7472 H        63        0    0.0000
    988 H         120.2758  202.7906  178.6194 H        63        0    0.0000
    989 H         118.4814  201.3540  178.4143 H        63        0    0.0000
    990 H         119.1560  200.1953  179.5546 H        63        0    0.0000
    991 H         119.9751  202.7334  180.9914 H        63        0    0.0000
    992 H         120.5042  201.0516  181.1077 H        63        0    0.0000
    993 H         122.4862  202.1641  181.7767 H        63        0    0.0000
    994 H         121.9190  204.2310  179.5684 H        63        0    0.0000
    995 H         123.4990  204.0384  180.3134 H        63        0    0.0000
    996 C         118.3094  205.5428  181.9122 C.3      64        0    0.0000
    997 C         119.4690  204.6633  181.4373 C.3      64        0    0.0000
    998 C         120.7050  205.5710  181.3861 C.3      64        0    0.0000
    999 C         122.0008  204.8063  181.6701 C.3      64        0    0.0000
   1000 C         120.3743  206.6673  182.4043 C.3      64        0    0.0000
   1001 C         118.8930  206.9453  182.1281 C.3      64        0    0.0000
   1002 C         118.1697  207.7119  183.2389 C.3      64        0    0.0000
   1003 H         117.4967  205.5642  181.1782 H        64        0    0.0000
   1004 H         117.8968  205.1324  182.8417 H        64        0    0.0000
   1005 H         119.2626  204.2250  180.4550 H        64        0    0.0000
   1006 H         119.6094  203.8334  182.1403 H        64        0    0.0000
   1007 H         120.7554  206.0250  180.3857 H        64        0    0.0000
   1008 H         121.8629  204.1774  182.5577 H        64        0    0.0000
   1009 H         122.8123  205.5061  181.9017 H        64        0    0.0000
   1010 H         120.9917  207.5596  182.2596 H        64        0    0.0000
   1011 H         120.5220  206.3080  183.4304 H        64        0    0.0000
   1012 H         118.8106  207.5000  181.1821 H        64        0    0.0000
   1013 H         117.5830  207.0224  183.8570 H        64        0    0.0000
   1014 H         117.4593  208.4160  182.7893 H        64        0    0.0000
   1015 C         119.1506  208.5090  184.1420 C.3      65        0    0.0000
   1016 C         118.4877  209.6483  184.9294 C.3      65        0    0.0000
   1017 H         119.9062  208.9485  183.4783 H        65        0    0.0000
   1018 H         119.6819  207.8197  184.8087 H        65        0    0.0000
   1019 H         117.5984  209.9733  184.3744 H        65        0    0.0000
   1020 H         118.1371  209.3044  185.9096 H        65        0    0.0000
   1021 C         118.6447  214.2212  186.6114 C.3      66        0    0.0000
   1022 C         118.3764  212.7147  186.6464 C.3      66        0    0.0000
   1023 C         118.5691  212.1998  185.2086 C.3      66        0    0.0000
   1024 C         119.3973  210.9130  185.1076 C.3      66        0    0.0000
   1025 C         119.2196  213.3721  184.4671 C.3      66        0    0.0000
   1026 C         118.6336  214.6222  185.1322 C.3      66        0    0.0000
   1027 C         117.2255  214.9615  184.6075 C.3      66        0    0.0000
   1028 H         117.9291  214.7768  187.2249 H        66        0    0.0000
   1029 H         119.6419  214.4121  187.0283 H        66        0    0.0000
   1030 H         119.0471  212.2311  187.3651 H        66        0    0.0000
   1031 H         117.3502  212.5176  186.9778 H        66        0    0.0000
   1032 H         117.5767  212.0262  184.7686 H        66        0    0.0000
   1033 H         120.0709  210.9815  184.2450 H        66        0    0.0000
   1034 H         120.0291  210.7936  185.9953 H        66        0    0.0000
   1035 H         119.0269  213.3336  183.3900 H        66        0    0.0000
   1036 H         120.3078  213.3578  184.6099 H        66        0    0.0000
   1037 H         119.3018  215.4762  184.9636 H        66        0    0.0000
   1038 H         116.4840  214.2406  184.9693 H        66        0    0.0000
   1039 H         117.2208  214.9011  183.5127 H        66        0    0.0000
   1040 C         113.6369  217.4225  183.4358 C.3      67        0    0.0000
   1041 C         114.6045  216.2697  183.6992 C.3      67        0    0.0000
   1042 C         115.2618  216.5484  185.0620 C.3      67        0    0.0000
   1043 C         116.7881  216.3984  185.0150 C.3      67        0    0.0000
   1044 C         114.7827  217.9567  185.4467 C.3      67        0    0.0000
   1045 C         113.4034  218.0967  184.7903 C.3      67        0    0.0000
   1046 C         112.2611  217.4238  185.5732 C.3      67        0    0.0000
   1047 H         114.1143  218.1377  182.7539 H        67        0    0.0000
   1048 H         112.7142  217.0835  182.9544 H        67        0    0.0000
   1049 H         115.3316  216.1875  182.8839 H        67        0    0.0000
   1050 H         114.0593  215.3195  183.7414 H        67        0    0.0000
   1051 H         114.8537  215.8294  185.7864 H        67        0    0.0000
   1052 H         117.2263  216.6560  185.9862 H        67        0    0.0000
   1053 H         117.1991  217.1057  184.2847 H        67        0    0.0000
   1054 H         114.7590  218.1001  186.5313 H        67        0    0.0000
   1055 H         115.4574  218.7157  185.0295 H        67        0    0.0000
   1056 H         113.1624  219.1566  184.6388 H        67        0    0.0000
   1057 H         112.4605  216.3583  185.7298 H        67        0    0.0000
   1058 H         111.3362  217.4865  184.9871 H        67        0    0.0000
   1059 C         112.0086  218.1119  186.9445 C.3      68        0    0.0000
   1060 C         112.8702  217.5581  188.0884 C.3      68        0    0.0000
   1061 H         112.2548  219.1738  186.8163 H        68        0    0.0000
   1062 H         110.9413  218.0651  187.1904 H        68        0    0.0000
   1063 H         112.3287  217.5783  189.0415 H        68        0    0.0000
   1064 H         113.0860  216.5039  187.8725 H        68        0    0.0000
   1065 C         112.8959  219.2001  185.4070 C.3      69        0    0.0000
   1066 C         114.0105  218.1999  185.7257 C.3      69        0    0.0000
   1067 C         114.7991  218.7849  186.9025 C.3      69        0    0.0000
   1068 C         114.2531  218.2791  188.2511 C.3      69        0    0.0000
   1069 C         114.6389  220.2939  186.6781 C.3      69        0    0.0000
   1070 C         113.1814  220.4603  186.2406 C.3      69        0    0.0000
   1071 C         112.9424  221.7802  185.4986 C.3      69        0    0.0000
   1072 H         112.8795  219.4051  184.3306 H        69        0    0.0000
   1073 H         111.9173  218.7842  185.6730 H        69        0    0.0000
   1074 H         114.6707  218.1166  184.8531 H        69        0    0.0000
   1075 H         113.6162  217.1984  185.9255 H        69        0    0.0000
   1076 H         115.8565  218.5031  186.8183 H        69        0    0.0000
   1077 H         114.1189  219.1315  188.9280 H        69        0    0.0000
   1078 H         114.9629  217.6022  188.7384 H        69        0    0.0000
   1079 H         115.3158  220.6158  185.8759 H        69        0    0.0000
   1080 H         114.8701  220.8951  187.5624 H        69        0    0.0000
   1081 H         112.5454  220.4340  187.1366 H        69        0    0.0000
   1082 H         112.0443  222.2769  185.8837 H        69        0    0.0000
   1083 H         112.7610  221.5734  184.4372 H        69        0    0.0000
   1084 C         113.7982  225.5120  183.0441 C.3      70        0    0.0000
   1085 C         113.5130  224.0895  183.5051 C.3      70        0    0.0000
   1086 C         113.9457  224.1134  184.9748 C.3      70        0    0.0000
   1087 C         114.1603  222.7405  185.6194 C.3      70        0    0.0000
   1088 C         115.1547  225.0679  185.0263 C.3      70        0    0.0000
   1089 C         115.1628  225.8085  183.6747 C.3      70        0    0.0000
   1090 C         115.5515  227.2889  183.7352 C.3      70        0    0.0000
   1091 H         113.8237  225.5907  181.9528 H        70        0    0.0000
   1092 H         113.0176  226.1849  183.4156 H        70        0    0.0000
   1093 H         112.4566  223.8271  183.3917 H        70        0    0.0000
   1094 H         114.1047  223.3829  182.9127 H        70        0    0.0000
   1095 H         113.1350  224.5997  185.5381 H        70        0    0.0000
   1096 H         115.0333  222.2618  185.1600 H        70        0    0.0000
   1097 H         114.3978  222.8763  186.6811 H        70        0    0.0000
   1098 H         116.1064  224.5427  185.1616 H        70        0    0.0000
   1099 H         115.0510  225.7442  185.8817 H        70        0    0.0000
   1100 H         115.9187  225.3124  183.0472 H        70        0    0.0000
   1101 H         115.5450  227.6183  184.7809 H        70        0    0.0000
   1102 H         116.5806  227.4042  183.3749 H        70        0    0.0000
   1103 C         114.6234  228.2288  182.9085 C.3      71        0    0.0000
   1104 C         114.1387  229.4639  183.6811 C.3      71        0    0.0000
   1105 H         113.7434  227.6368  182.6262 H        71        0    0.0000
   1106 H         115.1227  228.5130  181.9747 H        71        0    0.0000
   1107 H         113.8878  229.1498  184.7023 H        71        0    0.0000
   1108 H         114.9321  230.2153  183.7703 H        71        0    0.0000
   1109 C         112.8497  230.1252  183.0813 C.3      72        0    0.0000
   1110 C         111.7959  230.5034  184.1320 C.3      72        0    0.0000
   1111 H         112.4031  229.3888  182.4010 H        72        0    0.0000
   1112 H         113.1292  230.9897  182.4677 H        72        0    0.0000
   1113 H         111.9263  229.8422  184.9983 H        72        0    0.0000
   1114 H         111.9436  231.5275  184.4944 H        72        0    0.0000
   1115 C         110.3826  229.5642  179.9500 C.3      73        0    0.0000
   1116 C         111.1029  229.7844  181.2828 C.3      73        0    0.0000
   1117 C         110.1553  230.6227  182.1510 C.3      73        0    0.0000
   1118 C         110.3166  230.3238  183.6441 C.3      73        0    0.0000
   1119 C         108.7732  230.2903  181.5790 C.3      73        0    0.0000
   1120 C         109.0298  230.2785  180.0684 C.3      73        0    0.0000
   1121 C         107.9370  229.5963  179.2408 C.3      73        0    0.0000
   1122 H         110.9640  229.9606  179.1106 H        73        0    0.0000
   1123 H         110.2547  228.4888  179.7775 H        73        0    0.0000
   1124 H         112.0608  230.2960  181.1403 H        73        0    0.0000
   1125 H         111.3186  228.8141  181.7459 H        73        0    0.0000
   1126 H         110.3670  231.6851  181.9617 H        73        0    0.0000
   1127 H         110.0072  229.2906  183.8419 H        73        0    0.0000
   1128 H         109.6566  230.9699  184.2347 H        73        0    0.0000
   1129 H         108.0237  231.0366  181.8607 H        73        0    0.0000
   1130 H         108.4299  229.3079  181.9268 H        73        0    0.0000
   1131 H         109.1591  231.3158  179.7265 H        73        0    0.0000
   1132 H         108.0162  228.5066  179.3310 H        73        0    0.0000
   1133 H         108.0821  229.8372  178.1809 H        73        0    0.0000
   1134 C         106.3831  232.5103  182.5508 C.3      74        0    0.0000
   1135 C         106.9232  231.2319  181.9252 C.3      74        0    0.0000
   1136 C         106.4733  231.3493  180.4653 C.3      74        0    0.0000
   1137 C         106.5107  230.0474  179.6591 C.3      74        0    0.0000
   1138 C         105.1063  232.0593  180.5178 C.3      74        0    0.0000
   1139 C         104.9785  232.6187  181.9482 C.3      74        0    0.0000
   1140 C         104.3187  233.9963  182.0621 C.3      74        0    0.0000
   1141 H         106.3585  232.4521  183.6434 H        74        0    0.0000
   1142 H         107.0187  233.3571  182.2694 H        74        0    0.0000
   1143 H         108.0115  231.1606  182.0157 H        74        0    0.0000
   1144 H         106.4826  230.3613  182.4235 H        74        0    0.0000
   1145 H         107.1707  232.0427  179.9715 H        74        0    0.0000
   1146 H         106.0471  229.2477  180.2488 H        74        0    0.0000
   1147 H         105.9003  230.1674  178.7562 H        74        0    0.0000
   1148 H         104.2681  231.3849  180.3122 H        74        0    0.0000
   1149 H         105.0697  232.8402  179.7505 H        74        0    0.0000
   1150 H         104.3377  231.9184  182.5051 H        74        0    0.0000
   1151 H         103.8365  234.0824  183.0430 H        74        0    0.0000
   1152 H         105.0949  234.7697  182.0237 H        74        0    0.0000
   1153 C         103.2612  234.2932  180.9567 C.3      75        0    0.0000
   1154 C         101.8100  234.2623  181.4572 C.3      75        0    0.0000
   1155 H         103.4704  235.3031  180.5812 H        75        0    0.0000
   1156 H         103.4068  233.6087  180.1128 H        75        0    0.0000
   1157 H         101.7652  234.1027  182.5409 H        75        0    0.0000
   1158 H         101.3630  235.2464  181.2663 H        75        0    0.0000
   1159 C         103.9265  231.1217  180.6148 C.3      76        0    0.0000
   1160 C         102.8567  231.7520  181.5053 C.3      76        0    0.0000
   1161 C         101.5699  231.8239  180.6651 C.3      76        0    0.0000
   1162 C         100.9076  233.2064  180.7298 C.3      76        0    0.0000
   1163 C         102.0012  231.4017  179.2522 C.3      76        0    0.0000
   1164 C         103.1748  230.4382  179.4698 C.3      76        0    0.0000
   1165 C         102.7533  229.0043  179.8396 C.3      76        0    0.0000
   1166 H         104.5616  231.9178  180.2056 H        76        0    0.0000
   1167 H         104.5788  230.4427  181.1729 H        76        0    0.0000
   1168 H         103.1875  232.7330  181.8636 H        76        0    0.0000
   1169 H         102.6839  231.1276  182.3898 H        76        0    0.0000
   1170 H         100.8694  231.0727  181.0567 H        76        0    0.0000
   1171 H          99.9367  233.1405  181.2345 H        76        0    0.0000
   1172 H         100.7112  233.5617  179.7110 H        76        0    0.0000
   1173 H         101.1771  230.9546  178.6879 H        76        0    0.0000
   1174 H         102.3530  232.2734  178.6850 H        76        0    0.0000
   1175 H         103.8107  230.4087  178.5758 H        76        0    0.0000
   1176 H         102.0090  229.0036  180.6432 H        76        0    0.0000
   1177 H         103.6253  228.4586  180.2201 H        76        0    0.0000
   1178 H         102.3625  228.4582  178.9811 H        76        0    0.0000
   1179 H         193.2923  220.0919  206.1039 H         0        0    0.0000
@<TRIPOS>BOND
     1     1     2      1
     2     1     6      1
     3     1     8      1
     4     1     9      1
     5     2     3      1
     6     2    10      1
     7     2    11      1
     8     3     4      1
     9     3     5      1
    10     3    12      1
    11     4    13      1
    12     4    14      1
    13     4  1179      H
    14     5     6      1
    15     5    15      1
    16     5    16      1
    17     6     7      1
    18     6    17      1
    19     7    18      1
    20     7    19      1
    21     7    23      1
    22    20    21      1
    23    20    25      1
    24    20    27      1
    25    20    28      1
    26    21    22      1
    27    21    29      1
    28    21    30      1
    29    22    23      1
    30    22    24      1
    31    22    31      1
    32    23    32      1
    33    23    33      1
    34    24    25      1
    35    24    34      1
    36    24    35      1
    37    25    26      1
    38    25    36      1
    39    26    37      1
    40    26    38      1
    41    26    39      1
    42    39    40      1
    43    39    41      1
    44    39    42      1
    45    40    43      1
    46    40    44      1
    47    40    48      1
    48    45    46      1
    49    45    50      1
    50    45    52      1
    51    45    53      1
    52    46    47      1
    53    46    54      1
    54    46    55      1
    55    47    48      1
    56    47    49      1
    57    47    56      1
    58    48    57      1
    59    48    58      1
    60    49    50      1
    61    49    59      1
    62    49    60      1
    63    50    51      1
    64    50    61      1
    65    51    62      1
    66    51    63      1
    67    51    64      1
    68    64    65      1
    69    64    66      1
    70    64    67      1
    71    65    68      1
    72    65    69      1
    73    65    73      1
    74    70    71      1
    75    70    75      1
    76    70    77      1
    77    70    78      1
    78    71    72      1
    79    71    79      1
    80    71    80      1
    81    72    73      1
    82    72    74      1
    83    72    81      1
    84    73    82      1
    85    73    83      1
    86    74    75      1
    87    74    84      1
    88    74    85      1
    89    75    76      1
    90    75    86      1
    91    76    87      1
    92    76    88      1
    93    76    92      1
    94    89    90      1
    95    89    94      1
    96    89    96      1
    97    89    97      1
    98    90    91      1
    99    90    98      1
   100    90    99      1
   101    91    92      1
   102    91    93      1
   103    91   100      1
   104    92   101      1
   105    92   102      1
   106    93    94      1
   107    93   103      1
   108    93   104      1
   109    94    95      1
   110    94   105      1
   111    95   106      1
   112    95   107      1
   113    95   108      1
   114   108   109      1
   115   108   110      1
   116   108   111      1
   117   109   112      1
   118   109   113      1
   119   109   114      1
   120   114   115      1
   121   114   116      1
   122   114   117      1
   123   115   118      1
   124   115   119      1
   125   115   120      1
   126   120   121      1
   127   120   122      1
   128   120   123      1
   129   121   124      1
   130   121   125      1
   131   121   126      1
   132   126   127      1
   133   126   128      1
   134   126   129      1
   135   127   130      1
   136   127   131      1
   137   127   135      1
   138   132   133      1
   139   132   137      1
   140   132   139      1
   141   132   140      1
   142   133   134      1
   143   133   141      1
   144   133   142      1
   145   134   135      1
   146   134   136      1
   147   134   143      1
   148   135   144      1
   149   135   145      1
   150   136   137      1
   151   136   146      1
   152   136   147      1
   153   137   138      1
   154   137   148      1
   155   138   149      1
   156   138   150      1
   157   138   154      1
   158   151   152      1
   159   151   156      1
   160   151   158      1
   161   151   159      1
   162   152   153      1
   163   152   160      1
   164   152   161      1
   165   153   154      1
   166   153   155      1
   167   153   162      1
   168   154   163      1
   169   154   164      1
   170   155   156      1
   171   155   165      1
   172   155   166      1
   173   156   157      1
   174   156   167      1
   175   157   168      1
   176   157   169      1
   177   157   170      1
   178   170   171      1
   179   170   172      1
   180   170   173      1
   181   171   174      1
   182   171   175      1
   183   171   179      1
   184   176   177      1
   185   176   181      1
   186   176   183      1
   187   176   184      1
   188   177   178      1
   189   177   185      1
   190   177   186      1
   191   178   179      1
   192   178   180      1
   193   178   187      1
   194   179   188      1
   195   179   189      1
   196   180   181      1
   197   180   190      1
   198   180   191      1
   199   181   182      1
   200   181   192      1
   201   182   193      1
   202   182   194      1
   203   182   195      1
   204   195   196      1
   205   195   197      1
   206   195   198      1
   207   196   199      1
   208   196   200      1
   209   196   204      1
   210   201   202      1
   211   201   206      1
   212   201   208      1
   213   201   209      1
   214   202   203      1
   215   202   210      1
   216   202   211      1
   217   203   204      1
   218   203   205      1
   219   203   212      1
   220   204   213      1
   221   204   214      1
   222   205   206      1
   223   205   215      1
   224   205   216      1
   225   206   207      1
   226   206   217      1
   227   207   218      1
   228   207   219      1
   229   207   223      1
   230   220   221      1
   231   220   225      1
   232   220   227      1
   233   220   228      1
   234   221   222      1
   235   221   229      1
   236   221   230      1
   237   222   223      1
   238   222   224      1
   239   222   231      1
   240   223   232      1
   241   223   233      1
   242   224   225      1
   243   224   234      1
   244   224   235      1
   245   225   226      1
   246   225   236      1
   247   226   237      1
   248   226   238      1
   249   226   242      1
   250   239   240      1
   251   239   244      1
   252   239   246      1
   253   239   247      1
   254   240   241      1
   255   240   248      1
   256   240   249      1
   257   241   242      1
   258   241   243      1
   259   241   250      1
   260   242   251      1
   261   242   252      1
   262   243   244      1
   263   243   253      1
   264   243   254      1
   265   244   245      1
   266   244   255      1
   267   245   256      1
   268   245   257      1
   269   245   261      1
   270   258   259      1
   271   258   263      1
   272   258   265      1
   273   258   266      1
   274   259   260      1
   275   259   267      1
   276   259   268      1
   277   260   261      1
   278   260   262      1
   279   260   269      1
   280   261   270      1
   281   261   271      1
   282   262   263      1
   283   262   272      1
   284   262   273      1
   285   263   264      1
   286   263   274      1
   287   264   275      1
   288   264   276      1
   289   264   277      1
   290   277   278      1
   291   277   279      1
   292   277   280      1
   293   278   281      1
   294   278   282      1
   295   278   286      1
   296   283   284      1
   297   283   288      1
   298   283   290      1
   299   283   291      1
   300   284   285      1
   301   284   292      1
   302   284   293      1
   303   285   286      1
   304   285   287      1
   305   285   294      1
   306   286   295      1
   307   286   296      1
   308   287   288      1
   309   287   297      1
   310   287   298      1
   311   288   289      1
   312   288   299      1
   313   289   300      1
   314   289   301      1
   315   289   305      1
   316   302   303      1
   317   302   307      1
   318   302   309      1
   319   302   310      1
   320   303   304      1
   321   303   311      1
   322   303   312      1
   323   304   305      1
   324   304   306      1
   325   304   313      1
   326   305   314      1
   327   305   315      1
   328   306   307      1
   329   306   316      1
   330   306   317      1
   331   307   308      1
   332   307   318      1
   333   308   319      1
   334   308   320      1
   335   308   324      1
   336   321   322      1
   337   321   326      1
   338   321   328      1
   339   321   329      1
   340   322   323      1
   341   322   330      1
   342   322   331      1
   343   323   324      1
   344   323   325      1
   345   323   332      1
   346   324   333      1
   347   324   334      1
   348   325   326      1
   349   325   335      1
   350   325   336      1
   351   326   327      1
   352   326   337      1
   353   327   338      1
   354   327   339      1
   355   327   343      1
   356   340   341      1
   357   340   345      1
   358   340   347      1
   359   340   348      1
   360   341   342      1
   361   341   349      1
   362   341   350      1
   363   342   343      1
   364   342   344      1
   365   342   351      1
   366   343   352      1
   367   343   353      1
   368   344   345      1
   369   344   354      1
   370   344   355      1
   371   345   346      1
   372   345   356      1
   373   346   357      1
   374   346   358      1
   375   346   362      1
   376   359   360      1
   377   359   364      1
   378   359   366      1
   379   359   367      1
   380   360   361      1
   381   360   368      1
   382   360   369      1
   383   361   362      1
   384   361   363      1
   385   361   370      1
   386   362   371      1
   387   362   372      1
   388   363   364      1
   389   363   373      1
   390   363   374      1
   391   364   365      1
   392   364   375      1
   393   365   376      1
   394   365   377      1
   395   365   381      1
   396   378   379      1
   397   378   383      1
   398   378   385      1
   399   378   386      1
   400   379   380      1
   401   379   387      1
   402   379   388      1
   403   380   381      1
   404   380   382      1
   405   380   389      1
   406   381   390      1
   407   381   391      1
   408   382   383      1
   409   382   392      1
   410   382   393      1
   411   383   384      1
   412   383   394      1
   413   384   395      1
   414   384   396      1
   415   384   397      1
   416   397   398      1
   417   397   399      1
   418   397   400      1
   419   398   401      1
   420   398   402      1
   421   398   406      1
   422   403   404      1
   423   403   408      1
   424   403   410      1
   425   403   411      1
   426   404   405      1
   427   404   412      1
   428   404   413      1
   429   405   406      1
   430   405   407      1
   431   405   414      1
   432   406   415      1
   433   406   416      1
   434   407   408      1
   435   407   417      1
   436   407   418      1
   437   408   409      1
   438   408   419      1
   439   409   420      1
   440   409   421      1
   441   409   425      1
   442   422   423      1
   443   422   427      1
   444   422   429      1
   445   422   430      1
   446   423   424      1
   447   423   431      1
   448   423   432      1
   449   424   425      1
   450   424   426      1
   451   424   433      1
   452   425   434      1
   453   425   435      1
   454   426   427      1
   455   426   436      1
   456   426   437      1
   457   427   428      1
   458   427   438      1
   459   428   439      1
   460   428   440      1
   461   428   444      1
   462   441   442      1
   463   441   446      1
   464   441   448      1
   465   441   449      1
   466   442   443      1
   467   442   450      1
   468   442   451      1
   469   443   444      1
   470   443   445      1
   471   443   452      1
   472   444   453      1
   473   444   454      1
   474   445   446      1
   475   445   455      1
   476   445   456      1
   477   446   447      1
   478   446   457      1
   479   447   458      1
   480   447   459      1
   481   447   463      1
   482   460   461      1
   483   460   465      1
   484   460   467      1
   485   460   468      1
   486   461   462      1
   487   461   469      1
   488   461   470      1
   489   462   463      1
   490   462   464      1
   491   462   471      1
   492   463   472      1
   493   463   473      1
   494   464   465      1
   495   464   474      1
   496   464   475      1
   497   465   466      1
   498   465   476      1
   499   466   477      1
   500   466   478      1
   501   466   479      1
   502   479   480      1
   503   479   481      1
   504   479   482      1
   505   480   483      1
   506   480   484      1
   507   480   488      1
   508   485   486      1
   509   485   490      1
   510   485   492      1
   511   485   493      1
   512   486   487      1
   513   486   494      1
   514   486   495      1
   515   487   488      1
   516   487   489      1
   517   487   496      1
   518   488   497      1
   519   488   498      1
   520   489   490      1
   521   489   499      1
   522   489   500      1
   523   490   491      1
   524   490   501      1
   525   491   502      1
   526   491   503      1
   527   491   507      1
   528   504   505      1
   529   504   509      1
   530   504   511      1
   531   504   512      1
   532   505   506      1
   533   505   513      1
   534   505   514      1
   535   506   507      1
   536   506   508      1
   537   506   515      1
   538   507   516      1
   539   507   517      1
   540   508   509      1
   541   508   518      1
   542   508   519      1
   543   509   510      1
   544   509   520      1
   545   510   521      1
   546   510   522      1
   547   510   526      1
   548   523   524      1
   549   523   528      1
   550   523   530      1
   551   523   531      1
   552   524   525      1
   553   524   532      1
   554   524   533      1
   555   525   526      1
   556   525   527      1
   557   525   534      1
   558   526   535      1
   559   526   536      1
   560   527   528      1
   561   527   537      1
   562   527   538      1
   563   528   529      1
   564   528   539      1
   565   529   540      1
   566   529   541      1
   567   529   545      1
   568   542   543      1
   569   542   547      1
   570   542   549      1
   571   542   550      1
   572   543   544      1
   573   543   551      1
   574   543   552      1
   575   544   545      1
   576   544   546      1
   577   544   553      1
   578   545   554      1
   579   545   555      1
   580   546   547      1
   581   546   556      1
   582   546   557      1
   583   547   548      1
   584   547   558      1
   585   548   559      1
   586   548   560      1
   587   548   564      1
   588   561   562      1
   589   561   566      1
   590   561   568      1
   591   561   569      1
   592   562   563      1
   593   562   570      1
   594   562   571      1
   595   563   564      1
   596   563   565      1
   597   563   572      1
   598   564   573      1
   599   564   574      1
   600   565   566      1
   601   565   575      1
   602   565   576      1
   603   566   567      1
   604   566   577      1
   605   567   578      1
   606   567   579      1
   607   567   583      1
   608   580   581      1
   609   580   585      1
   610   580   587      1
   611   580   588      1
   612   581   582      1
   613   581   589      1
   614   581   590      1
   615   582   583      1
   616   582   584      1
   617   582   591      1
   618   583   592      1
   619   583   593      1
   620   584   585      1
   621   584   594      1
   622   584   595      1
   623   585   586      1
   624   585   596      1
   625   586   597      1
   626   586   598      1
   627   586   602      1
   628   599   600      1
   629   599   604      1
   630   599   606      1
   631   599   607      1
   632   600   601      1
   633   600   608      1
   634   600   609      1
   635   601   602      1
   636   601   603      1
   637   601   610      1
   638   602   611      1
   639   602   612      1
   640   603   604      1
   641   603   613      1
   642   603   614      1
   643   604   605      1
   644   604   615      1
   645   605   616      1
   646   605   617      1
   647   605   621      1
   648   618   619      1
   649   618   623      1
   650   618   625      1
   651   618   626      1
   652   619   620      1
   653   619   627      1
   654   619   628      1
   655   620   621      1
   656   620   622      1
   657   620   629      1
   658   621   630      1
   659   621   631      1
   660   622   623      1
   661   622   632      1
   662   622   633      1
   663   623   624      1
   664   623   634      1
   665   624   635      1
   666   624   636      1
   667   624   640      1
   668   637   638      1
   669   637   642      1
   670   637   644      1
   671   637   645      1
   672   638   639      1
   673   638   646      1
   674   638   647      1
   675   639   640      1
   676   639   641      1
   677   639   648      1
   678   640   649      1
   679   640   650      1
   680   641   642      1
   681   641   651      1
   682   641   652      1
   683   642   643      1
   684   642   653      1
   685   643   654      1
   686   643   655      1
   687   643   659      1
   688   656   657      1
   689   656   661      1
   690   656   663      1
   691   656   664      1
   692   657   658      1
   693   657   665      1
   694   657   666      1
   695   658   659      1
   696   658   660      1
   697   658   667      1
   698   659   668      1
   699   659   669      1
   700   660   661      1
   701   660   670      1
   702   660   671      1
   703   661   662      1
   704   661   672      1
   705   662   673      1
   706   662   674      1
   707   662   675      1
   708   675   676      1
   709   675   677      1
   710   675   678      1
   711   676   679      1
   712   676   680      1
   713   676   684      1
   714   681   682      1
   715   681   686      1
   716   681   688      1
   717   681   689      1
   718   682   683      1
   719   682   690      1
   720   682   691      1
   721   683   684      1
   722   683   685      1
   723   683   692      1
   724   684   693      1
   725   684   694      1
   726   685   686      1
   727   685   695      1
   728   685   696      1
   729   686   687      1
   730   686   697      1
   731   687   698      1
   732   687   699      1
   733   687   703      1
   734   700   701      1
   735   700   705      1
   736   700   707      1
   737   700   708      1
   738   701   702      1
   739   701   709      1
   740   701   710      1
   741   702   703      1
   742   702   704      1
   743   702   711      1
   744   703   712      1
   745   703   713      1
   746   704   705      1
   747   704   714      1
   748   704   715      1
   749   705   706      1
   750   705   716      1
   751   706   717      1
   752   706   718      1
   753   706   722      1
   754   719   720      1
   755   719   724      1
   756   719   726      1
   757   719   727      1
   758   720   721      1
   759   720   728      1
   760   720   729      1
   761   721   722      1
   762   721   723      1
   763   721   730      1
   764   722   731      1
   765   722   732      1
   766   723   724      1
   767   723   733      1
   768   723   734      1
   769   724   725      1
   770   724   735      1
   771   725   736      1
   772   725   737      1
   773   725   741      1
   774   738   739      1
   775   738   743      1
   776   738   745      1
   777   738   746      1
   778   739   740      1
   779   739   747      1
   780   739   748      1
   781   740   741      1
   782   740   742      1
   783   740   749      1
   784   741   750      1
   785   741   751      1
   786   742   743      1
   787   742   752      1
   788   742   753      1
   789   743   744      1
   790   743   754      1
   791   744   755      1
   792   744   756      1
   793   744   760      1
   794   757   758      1
   795   757   762      1
   796   757   764      1
   797   757   765      1
   798   758   759      1
   799   758   766      1
   800   758   767      1
   801   759   760      1
   802   759   761      1
   803   759   768      1
   804   760   769      1
   805   760   770      1
   806   761   762      1
   807   761   771      1
   808   761   772      1
   809   762   763      1
   810   762   773      1
   811   763   774      1
   812   763   775      1
   813   763   779      1
   814   776   777      1
   815   776   781      1
   816   776   783      1
   817   776   784      1
   818   777   778      1
   819   777   785      1
   820   777   786      1
   821   778   779      1
   822   778   780      1
   823   778   787      1
   824   779   788      1
   825   779   789      1
   826   780   781      1
   827   780   790      1
   828   780   791      1
   829   781   782      1
   830   781   792      1
   831   782   793      1
   832   782   794      1
   833   782   795      1
   834   795   796      1
   835   795   797      1
   836   795   798      1
   837   796   799      1
   838   796   800      1
   839   796   804      1
   840   801   802      1
   841   801   806      1
   842   801   808      1
   843   801   809      1
   844   802   803      1
   845   802   810      1
   846   802   811      1
   847   803   804      1
   848   803   805      1
   849   803   812      1
   850   804   813      1
   851   804   814      1
   852   805   806      1
   853   805   815      1
   854   805   816      1
   855   806   807      1
   856   806   817      1
   857   807   818      1
   858   807   819      1
   859   807   823      1
   860   820   821      1
   861   820   825      1
   862   820   827      1
   863   820   828      1
   864   821   822      1
   865   821   829      1
   866   821   830      1
   867   822   823      1
   868   822   824      1
   869   822   831      1
   870   823   832      1
   871   823   833      1
   872   824   825      1
   873   824   834      1
   874   824   835      1
   875   825   826      1
   876   825   836      1
   877   826   837      1
   878   826   838      1
   879   826   839      1
   880   839   840      1
   881   839   841      1
   882   839   842      1
   883   840   843      1
   884   840   844      1
   885   840   848      1
   886   845   846      1
   887   845   850      1
   888   845   852      1
   889   845   853      1
   890   846   847      1
   891   846   854      1
   892   846   855      1
   893   847   848      1
   894   847   849      1
   895   847   856      1
   896   848   857      1
   897   848   858      1
   898   849   850      1
   899   849   859      1
   900   849   860      1
   901   850   851      1
   902   850   861      1
   903   851   862      1
   904   851   863      1
   905   851   867      1
   906   864   865      1
   907   864   869      1
   908   864   871      1
   909   864   872      1
   910   865   866      1
   911   865   873      1
   912   865   874      1
   913   866   867      1
   914   866   868      1
   915   866   875      1
   916   867   876      1
   917   867   877      1
   918   868   869      1
   919   868   878      1
   920   868   879      1
   921   869   870      1
   922   869   880      1
   923   870   881      1
   924   870   882      1
   925   870   883      1
   926   883   884      1
   927   883   885      1
   928   883   886      1
   929   884   887      1
   930   884   888      1
   931   884   892      1
   932   889   890      1
   933   889   894      1
   934   889   896      1
   935   889   897      1
   936   890   891      1
   937   890   898      1
   938   890   899      1
   939   891   892      1
   940   891   893      1
   941   891   900      1
   942   892   901      1
   943   892   902      1
   944   893   894      1
   945   893   903      1
   946   893   904      1
   947   894   895      1
   948   894   905      1
   949   895   906      1
   950   895   907      1
   951   895   908      1
   952   908   909      1
   953   908   910      1
   954   908   911      1
   955   909   912      1
   956   909   913      1
   957   909   917      1
   958   914   915      1
   959   914   919      1
   960   914   921      1
   961   914   922      1
   962   915   916      1
   963   915   923      1
   964   915   924      1
   965   916   917      1
   966   916   918      1
   967   916   925      1
   968   917   926      1
   969   917   927      1
   970   918   919      1
   971   918   928      1
   972   918   929      1
   973   919   920      1
   974   919   930      1
   975   920   931      1
   976   920   932      1
   977   920   936      1
   978   933   934      1
   979   933   938      1
   980   933   940      1
   981   933   941      1
   982   934   935      1
   983   934   942      1
   984   934   943      1
   985   935   936      1
   986   935   937      1
   987   935   944      1
   988   936   945      1
   989   936   946      1
   990   937   938      1
   991   937   947      1
   992   937   948      1
   993   938   939      1
   994   938   949      1
   995   939   950      1
   996   939   951      1
   997   939   955      1
   998   952   953      1
   999   952   957      1
  1000   952   959      1
  1001   952   960      1
  1002   953   954      1
  1003   953   961      1
  1004   953   962      1
  1005   954   955      1
  1006   954   956      1
  1007   954   963      1
  1008   955   964      1
  1009   955   965      1
  1010   956   957      1
  1011   956   966      1
  1012   956   967      1
  1013   957   958      1
  1014   957   968      1
  1015   958   969      1
  1016   958   970      1
  1017   958   971      1
  1018   971   972      1
  1019   971   973      1
  1020   971   974      1
  1021   972   975      1
  1022   972   976      1
  1023   972   980      1
  1024   977   978      1
  1025   977   982      1
  1026   977   984      1
  1027   977   985      1
  1028   978   979      1
  1029   978   986      1
  1030   978   987      1
  1031   979   980      1
  1032   979   981      1
  1033   979   988      1
  1034   980   989      1
  1035   980   990      1
  1036   981   982      1
  1037   981   991      1
  1038   981   992      1
  1039   982   983      1
  1040   982   993      1
  1041   983   994      1
  1042   983   995      1
  1043   983   999      1
  1044   996   997      1
  1045   996  1001      1
  1046   996  1003      1
  1047   996  1004      1
  1048   997   998      1
  1049   997  1005      1
  1050   997  1006      1
  1051   998   999      1
  1052   998  1000      1
  1053   998  1007      1
  1054   999  1008      1
  1055   999  1009      1
  1056  1000  1001      1
  1057  1000  1010      1
  1058  1000  1011      1
  1059  1001  1002      1
  1060  1001  1012      1
  1061  1002  1013      1
  1062  1002  1014      1
  1063  1002  1015      1
  1064  1015  1016      1
  1065  1015  1017      1
  1066  1015  1018      1
  1067  1016  1019      1
  1068  1016  1020      1
  1069  1016  1024      1
  1070  1021  1022      1
  1071  1021  1026      1
  1072  1021  1028      1
  1073  1021  1029      1
  1074  1022  1023      1
  1075  1022  1030      1
  1076  1022  1031      1
  1077  1023  1024      1
  1078  1023  1025      1
  1079  1023  1032      1
  1080  1024  1033      1
  1081  1024  1034      1
  1082  1025  1026      1
  1083  1025  1035      1
  1084  1025  1036      1
  1085  1026  1027      1
  1086  1026  1037      1
  1087  1027  1038      1
  1088  1027  1039      1
  1089  1027  1043      1
  1090  1040  1041      1
  1091  1040  1045      1
  1092  1040  1047      1
  1093  1040  1048      1
  1094  1041  1042      1
  1095  1041  1049      1
  1096  1041  1050      1
  1097  1042  1043      1
  1098  1042  1044      1
  1099  1042  1051      1
  1100  1043  1052      1
  1101  1043  1053      1
  1102  1044  1045      1
  1103  1044  1054      1
  1104  1044  1055      1
  1105  1045  1046      1
  1106  1045  1056      1
  1107  1046  1057      1
  1108  1046  1058      1
  1109  1046  1059      1
  1110  1059  1060      1
  1111  1059  1061      1
  1112  1059  1062      1
  1113  1060  1063      1
  1114  1060  1064      1
  1115  1060  1068      1
  1116  1065  1066      1
  1117  1065  1070      1
  1118  1065  1072      1
  1119  1065  1073      1
  1120  1066  1067      1
  1121  1066  1074      1
  1122  1066  1075      1
  1123  1067  1068      1
  1124  1067  1069      1
  1125  1067  1076      1
  1126  1068  1077      1
  1127  1068  1078      1
  1128  1069  1070      1
  1129  1069  1079      1
  1130  1069  1080      1
  1131  1070  1071      1
  1132  1070  1081      1
  1133  1071  1082      1
  1134  1071  1083      1
  1135  1071  1087      1
  1136  1084  1085      1
  1137  1084  1089      1
  1138  1084  1091      1
  1139  1084  1092      1
  1140  1085  1086      1
  1141  1085  1093      1
  1142  1085  1094      1
  1143  1086  1087      1
  1144  1086  1088      1
  1145  1086  1095      1
  1146  1087  1096      1
  1147  1087  1097      1
  1148  1088  1089      1
  1149  1088  1098      1
  1150  1088  1099      1
  1151  1089  1090      1
  1152  1089  1100      1
  1153  1090  1101      1
  1154  1090  1102      1
  1155  1090  1103      1
  1156  1103  1104      1
  1157  1103  1105      1
  1158  1103  1106      1
  1159  1104  1107      1
  1160  1104  1108      1
  1161  1104  1109      1
  1162  1109  1110      1
  1163  1109  1111      1
  1164  1109  1112      1
  1165  1110  1113      1
  1166  1110  1114      1
  1167  1110  1118      1
  1168  1115  1116      1
  1169  1115  1120      1
  1170  1115  1122      1
  1171  1115  1123      1
  1172  1116  1117      1
  1173  1116  1124      1
  1174  1116  1125      1
  1175  1117  1118      1
  1176  1117  1119      1
  1177  1117  1126      1
  1178  1118  1127      1
  1179  1118  1128      1
  1180  1119  1120      1
  1181  1119  1129      1
  1182  1119  1130      1
  1183  1120  1121      1
  1184  1120  1131      1
  1185  1121  1132      1
  1186  1121  1133      1
  1187  1121  1137      1
  1188  1134  1135      1
  1189  1134  1139      1
  1190  1134  1141      1
  1191  1134  1142      1
  1192  1135  1136      1
  1193  1135  1143      1
  1194  1135  1144      1
  1195  1136  1137      1
  1196  1136  1138      1
  1197  1136  1145      1
  1198  1137  1146      1
  1199  1137  1147      1
  1200  1138  1139      1
  1201  1138  1148      1
  1202  1138  1149      1
  1203  1139  1140      1
  1204  1139  1150      1
  1205  1140  1151      1
  1206  1140  1152      1
  1207  1140  1153      1
  1208  1153  1154      1
  1209  1153  1155      1
  1210  1153  1156      1
  1211  1154  1157      1
  1212  1154  1158      1
  1213  1154  1162      1
  1214  1159  1160      1
  1215  1159  1164      1
  1216  1159  1166      1
  1217  1159  1167      1
  1218  1160  1161      1
  1219  1160  1168      1
  1220  1160  1169      1
  1221  1161  1162      1
  1222  1161  1163      1
  1223  1161  1170      1
  1224  1162  1171      1
  1225  1162  1172      1
  1226  1163  1164      1
  1227  1163  1173      1
  1228  1163  1174      1
  1229  1164  1165      1
  1230  1164  1175      1
  1231  1165  1176      1
  1232  1165  1177      1
  1233  1165  1178      H
