###
### Created by PolyChef-cpp17 on Wed Feb 26 21:14:12 2025
###

@<TRIPOS>MOLECULE
NO_INFO
1041 1089 1 0 0
SMALL
USER_CHARGES


@<TRIPOS>ATOM
      1 C          69.9613  196.1231  183.4553 C.3       0        0    0.0000
      2 C          69.5942  197.3415  184.2908 C.3       0        0    0.0000
      3 C          70.9195  198.1048  184.3826 C.3       0        0    0.0000
      4 C          70.9907  199.1686  185.4824 C.3       0        0    0.0000
      5 C          72.0108  197.0179  184.4379 C.3       0        0    0.0000
      6 C          71.3133  195.7021  184.0407 C.3       0        0    0.0000
      7 C          72.1408  194.7534  183.1682 C.3       0        0    0.0000
      8 H          69.2122  195.3295  183.5385 H         0        0    0.0000
      9 H          70.0396  196.4078  182.4003 H         0        0    0.0000
     10 H          68.8075  197.9386  183.8192 H         0        0    0.0000
     11 H          69.2343  197.0208  185.2746 H         0        0    0.0000
     12 H          71.0494  198.6345  183.4267 H         0        0    0.0000
     13 H          70.9956  198.6728  186.4603 H         0        0    0.0000
     14 H          71.9414  199.7083  185.3980 H         0        0    0.0000
     15 H          72.4548  196.9107  185.4335 H         0        0    0.0000
     16 H          72.8297  197.2866  183.7619 H         0        0    0.0000
     17 H          71.1017  195.1620  184.9758 H         0        0    0.0000
     18 H          71.6684  193.7639  183.1676 H         0        0    0.0000
     19 H          72.1227  195.1117  182.1321 H         0        0    0.0000
     20 C          76.0799  195.5702  181.0107 C.3       1        0    0.0000
     21 C          74.6026  195.3744  181.3605 C.3       1        0    0.0000
     22 C          74.5472  194.2756  182.4370 C.3       1        0    0.0000
     23 C          73.6245  194.5994  183.6186 C.3       1        0    0.0000
     24 C          76.0053  194.0902  182.8691 C.3       1        0    0.0000
     25 C          76.8212  194.3660  181.6016 C.3       1        0    0.0000
     26 C          76.8599  193.1534  180.6523 C.3       1        0    0.0000
     27 H          76.2302  195.6966  179.9343 H         1        0    0.0000
     28 H          76.4391  196.4870  181.4954 H         1        0    0.0000
     29 H          74.1683  196.3223  181.6970 H         1        0    0.0000
     30 H          74.0398  195.0566  180.4751 H         1        0    0.0000
     31 H          74.2111  193.3433  181.9612 H         1        0    0.0000
     32 H          73.6820  193.7903  184.3565 H         1        0    0.0000
     33 H          73.9558  195.5141  184.1236 H         1        0    0.0000
     34 H          76.1867  193.0931  183.2830 H         1        0    0.0000
     35 H          76.2709  194.8233  183.6418 H         1        0    0.0000
     36 H          77.8457  194.6468  181.8773 H         1        0    0.0000
     37 H          76.8548  193.4713  179.6038 H         1        0    0.0000
     38 H          75.9617  192.5433  180.8046 H         1        0    0.0000
     39 C          78.1046  192.2560  180.9120 C.3       2        0    0.0000
     40 C          78.9299  191.9544  179.6529 C.3       2        0    0.0000
     41 H          78.7458  192.8002  181.6172 H         2        0    0.0000
     42 H          77.7958  191.3333  181.4171 H         2        0    0.0000
     43 H          78.5852  191.0378  179.1602 H         2        0    0.0000
     44 H          78.7727  192.7728  178.9387 H         2        0    0.0000
     45 C          81.4012  194.0432  182.7695 C.3       3        0    0.0000
     46 C          80.3088  193.6416  181.7753 C.3       3        0    0.0000
     47 C          81.0275  193.1715  180.4979 C.3       3        0    0.0000
     48 C          80.4744  191.8678  179.9092 C.3       3        0    0.0000
     49 C          82.4978  193.0478  180.9103 C.3       3        0    0.0000
     50 C          82.6980  194.1470  181.9592 C.3       3        0    0.0000
     51 C          82.9053  195.5348  181.3237 C.3       3        0    0.0000
     52 H          81.1436  194.9590  183.3098 H         3        0    0.0000
     53 H          81.5075  193.2474  183.5178 H         3        0    0.0000
     54 H          79.6695  192.8673  182.2134 H         3        0    0.0000
     55 H          79.6670  194.5004  181.5464 H         3        0    0.0000
     56 H          80.9502  193.9691  179.7452 H         3        0    0.0000
     57 H          80.9742  191.6591  178.9557 H         3        0    0.0000
     58 H          80.6934  191.0243  180.5739 H         3        0    0.0000
     59 H          83.1736  193.1483  180.0548 H         3        0    0.0000
     60 H          82.6852  192.0675  181.3674 H         3        0    0.0000
     61 H          83.5621  193.9012  182.5895 H         3        0    0.0000
     62 H          83.3119  196.2464  182.0509 H         3        0    0.0000
     63 H          81.9379  195.9328  180.9951 H         3        0    0.0000
     64 C          83.8470  195.4687  180.0864 C.3       4        0    0.0000
     65 C          85.1991  196.1660  180.2936 C.3       4        0    0.0000
     66 H          84.0385  194.4059  179.8905 H         4        0    0.0000
     67 H          83.3268  195.8611  179.2048 H         4        0    0.0000
     68 H          85.5313  196.6717  179.3794 H         4        0    0.0000
     69 H          85.0667  196.9467  181.0536 H         4        0    0.0000
     70 C          88.3079  192.5932  180.8315 C.3       5        0    0.0000
     71 C          88.0771  193.6859  179.7841 C.3       5        0    0.0000
     72 C          86.5882  194.0439  179.8471 C.3       5        0    0.0000
     73 C          86.3329  195.2158  180.8135 C.3       5        0    0.0000
     74 C          85.9562  192.7147  180.2794 C.3       5        0    0.0000
     75 C          86.9197  192.1605  181.3319 C.3       5        0    0.0000
     76 C          86.7592  190.6491  181.5311 C.3       5        0    0.0000
     77 H          88.8686  191.7646  180.3844 H         5        0    0.0000
     78 H          88.9072  192.9783  181.6645 H         5        0    0.0000
     79 H          88.3101  193.2791  178.7919 H         5        0    0.0000
     80 H          88.7352  194.5468  179.9397 H         5        0    0.0000
     81 H          86.2301  194.3223  178.8476 H         5        0    0.0000
     82 H          87.2530  195.8035  180.9181 H         5        0    0.0000
     83 H          86.0768  194.8558  181.8157 H         5        0    0.0000
     84 H          85.9061  192.0385  179.4160 H         5        0    0.0000
     85 H          84.9405  192.8201  180.6721 H         5        0    0.0000
     86 H          86.7215  192.6695  182.2857 H         5        0    0.0000
     87 H          86.0233  190.4442  182.3174 H         5        0    0.0000
     88 H          87.7116  190.2231  181.8681 H         5        0    0.0000
     89 C          88.3018  191.0476  177.2009 C.3       6        0    0.0000
     90 C          88.1333  190.9258  178.7177 C.3       6        0    0.0000
     91 C          86.6278  190.7756  178.9730 C.3       6        0    0.0000
     92 C          86.3295  189.9349  180.2175 C.3       6        0    0.0000
     93 C          86.1097  190.1789  177.6601 C.3       6        0    0.0000
     94 C          86.8912  190.9661  176.6030 C.3       6        0    0.0000
     95 C          86.8863  190.3378  175.2066 C.3       6        0    0.0000
     96 H          88.7908  191.9887  176.9270 H         6        0    0.0000
     97 H          88.9393  190.2326  176.8378 H         6        0    0.0000
     98 H          88.5341  191.8031  179.2367 H         6        0    0.0000
     99 H          88.6904  190.0526  179.0779 H         6        0    0.0000
    100 H          86.1990  191.7810  179.0946 H         6        0    0.0000
    101 H          86.8663  188.9813  180.1474 H         6        0    0.0000
    102 H          85.2612  189.6934  180.2661 H         6        0    0.0000
    103 H          85.0284  190.3089  177.5504 H         6        0    0.0000
    104 H          86.3366  189.1071  177.5992 H         6        0    0.0000
    105 H          86.4817  191.9855  176.5509 H         6        0    0.0000
    106 H          86.0404  189.6482  175.1029 H         6        0    0.0000
    107 H          87.7976  189.7422  175.0746 H         6        0    0.0000
    108 C          86.8253  191.4042  174.0789 C.3       7        0    0.0000
    109 C          85.9600  190.9942  172.8787 C.3       7        0    0.0000
    110 H          86.3876  192.3083  174.5211 H         7        0    0.0000
    111 H          87.8420  191.6692  173.7656 H         7        0    0.0000
    112 H          86.0400  189.9194  172.6779 H         7        0    0.0000
    113 H          84.9103  191.1884  173.1336 H         7        0    0.0000
    114 C          86.2643  191.8005  171.5687 C.3       8        0    0.0000
    115 C          85.6310  191.2002  170.3054 C.3       8        0    0.0000
    116 H          87.3541  191.7945  171.4390 H         8        0    0.0000
    117 H          85.9704  192.8481  171.7031 H         8        0    0.0000
    118 H          86.0107  190.1773  170.1873 H         8        0    0.0000
    119 H          84.5420  191.1208  170.4042 H         8        0    0.0000
    120 C          85.9871  191.9703  168.9867 C.3       9        0    0.0000
    121 C          85.0030  191.7225  167.8345 C.3       9        0    0.0000
    122 H          85.9651  193.0405  169.2290 H         9        0    0.0000
    123 H          87.0163  191.7373  168.6893 H         9        0    0.0000
    124 H          85.0085  190.6710  167.5244 H         9        0    0.0000
    125 H          83.9904  191.9366  168.1996 H         9        0    0.0000
    126 C          85.2382  192.6426  166.5867 C.3      10        0    0.0000
    127 C          85.2157  191.8939  165.2464 C.3      10        0    0.0000
    128 H          86.2315  193.0934  166.7083 H        10        0    0.0000
    129 H          84.5165  193.4678  166.5949 H        10        0    0.0000
    130 H          85.7914  190.9670  165.3645 H        10        0    0.0000
    131 H          84.1965  191.5971  164.9725 H        10        0    0.0000
    132 C          87.8786  190.3472  161.8395 C.3      11        0    0.0000
    133 C          87.3452  190.7338  163.2119 C.3      11        0    0.0000
    134 C          86.3061  191.8109  162.8836 C.3      11        0    0.0000
    135 C          85.8714  192.6864  164.0629 C.3      11        0    0.0000
    136 C          86.8768  192.5684  161.6687 C.3      11        0    0.0000
    137 C          88.0363  191.7014  161.1403 C.3      11        0    0.0000
    138 C          88.1750  191.6420  159.6160 C.3      11        0    0.0000
    139 H          88.8276  189.8064  161.9073 H        11        0    0.0000
    140 H          87.1549  189.7018  161.3296 H        11        0    0.0000
    141 H          86.9017  189.8800  163.7335 H        11        0    0.0000
    142 H          88.1615  191.1235  163.8299 H        11        0    0.0000
    143 H          85.4035  191.2873  162.5339 H        11        0    0.0000
    144 H          86.7429  193.2317  164.4443 H        11        0    0.0000
    145 H          85.1594  193.4401  163.7065 H        11        0    0.0000
    146 H          87.2525  193.5645  161.9262 H        11        0    0.0000
    147 H          86.0854  192.7191  160.9265 H        11        0    0.0000
    148 H          88.9658  192.1507  161.5213 H        11        0    0.0000
    149 H          89.1243  192.1068  159.3245 H        11        0    0.0000
    150 H          88.2283  190.5929  159.3015 H        11        0    0.0000
    151 C          88.4247  193.6286  155.5867 C.3      12        0    0.0000
    152 C          87.4882  193.7732  156.7892 C.3      12        0    0.0000
    153 C          87.2567  192.3552  157.3277 C.3      12        0    0.0000
    154 C          87.0173  192.3388  158.8400 C.3      12        0    0.0000
    155 C          88.5099  191.6006  156.8714 C.3      12        0    0.0000
    156 C          88.7199  192.1293  155.4487 C.3      12        0    0.0000
    157 C          90.1108  191.8612  154.8672 C.3      12        0    0.0000
    158 H          87.9674  194.0246  154.6736 H        12        0    0.0000
    159 H          89.3411  194.2032  155.7666 H        12        0    0.0000
    160 H          86.5414  194.2447  156.5047 H        12        0    0.0000
    161 H          87.9582  194.4168  157.5425 H        12        0    0.0000
    162 H          86.3839  191.9306  156.8106 H        12        0    0.0000
    163 H          86.0836  191.8044  159.0528 H        12        0    0.0000
    164 H          86.8893  193.3607  159.2158 H        12        0    0.0000
    165 H          88.3625  190.5160  156.8871 H        12        0    0.0000
    166 H          89.3683  191.8416  157.5109 H        12        0    0.0000
    167 H          87.9543  191.6882  154.7939 H        12        0    0.0000
    168 H          90.5920  191.0321  155.3992 H        12        0    0.0000
    169 H          90.7432  192.7440  155.0196 H        12        0    0.0000
    170 C          90.0647  191.5430  153.3475 C.3      13        0    0.0000
    171 C          90.8075  190.2574  152.9564 C.3      13        0    0.0000
    172 H          89.0070  191.4193  153.0816 H        13        0    0.0000
    173 H          90.4322  192.4048  152.7783 H        13        0    0.0000
    174 H          91.8551  190.4623  152.7063 H        13        0    0.0000
    175 H          90.8177  189.5914  153.8288 H        13        0    0.0000
    176 C          90.5386  190.8579  148.4171 C.3      14        0    0.0000
    177 C          90.8979  190.9948  149.8959 C.3      14        0    0.0000
    178 C          90.9228  189.5706  150.4773 C.3      14        0    0.0000
    179 C          90.1311  189.4613  151.7871 C.3      14        0    0.0000
    180 C          90.3890  188.6773  149.3468 C.3      14        0    0.0000
    181 C          90.7963  189.3936  148.0529 C.3      14        0    0.0000
    182 C          92.2596  189.1584  147.6357 C.3      14        0    0.0000
    183 H          89.4712  191.0794  148.2894 H        14        0    0.0000
    184 H          91.0925  191.5652  147.7919 H        14        0    0.0000
    185 H          90.1821  191.6503  150.4038 H        14        0    0.0000
    186 H          91.8877  191.4535  150.0044 H        14        0    0.0000
    187 H          91.9715  189.3033  150.6696 H        14        0    0.0000
    188 H          90.0146  188.4102  152.0752 H        14        0    0.0000
    189 H          89.1215  189.8614  151.6343 H        14        0    0.0000
    190 H          90.7767  187.6561  149.4130 H        14        0    0.0000
    191 H          89.2939  188.6167  149.3941 H        14        0    0.0000
    192 H          90.1336  189.0950  147.2307 H        14        0    0.0000
    193 H          92.9494  189.4028  148.4506 H        14        0    0.0000
    194 H          92.5092  189.8271  146.8029 H        14        0    0.0000
    195 C          92.5056  187.6960  147.1679 C.3      15        0    0.0000
    196 C          92.8985  186.7366  148.3004 C.3      15        0    0.0000
    197 H          91.5635  187.3401  146.7317 H        15        0    0.0000
    198 H          93.2480  187.6862  146.3612 H        15        0    0.0000
    199 H          93.4153  185.8512  147.9118 H        15        0    0.0000
    200 H          93.6122  187.2549  148.9536 H        15        0    0.0000
    201 C          90.0354  185.6678  145.9922 C.3      16        0    0.0000
    202 C          91.0480  185.1539  147.0145 C.3      16        0    0.0000
    203 C          90.5695  185.6419  148.3929 C.3      16        0    0.0000
    204 C          91.6970  186.2927  149.2049 C.3      16        0    0.0000
    205 C          89.3939  186.5831  148.0881 C.3      16        0    0.0000
    206 C          88.7831  186.0427  146.7888 C.3      16        0    0.0000
    207 C          87.8492  184.8346  146.9858 C.3      16        0    0.0000
    208 H          90.4411  186.5676  145.5124 H        16        0    0.0000
    209 H          89.8438  184.9375  145.1997 H        16        0    0.0000
    210 H          92.0552  185.5045  146.7640 H        16        0    0.0000
    211 H          91.0762  184.0579  147.0020 H        16        0    0.0000
    212 H          90.1875  184.7714  148.9447 H        16        0    0.0000
    213 H          92.0535  185.6051  149.9807 H        16        0    0.0000
    214 H          91.3068  187.1779  149.7215 H        16        0    0.0000
    215 H          88.6776  186.6260  148.9143 H        16        0    0.0000
    216 H          89.7583  187.6042  147.9157 H        16        0    0.0000
    217 H          88.2380  186.8397  146.2671 H        16        0    0.0000
    218 H          87.0701  185.0507  147.7246 H        16        0    0.0000
    219 H          88.4289  183.9908  147.3796 H        16        0    0.0000
    220 C          89.3639  182.4122  143.2828 C.3      17        0    0.0000
    221 C          89.0086  182.8792  144.6968 C.3      17        0    0.0000
    222 C          88.2151  184.1822  144.5333 C.3      17        0    0.0000
    223 C          87.1892  184.3832  145.6521 C.3      17        0    0.0000
    224 C          87.6124  184.0493  143.1307 C.3      17        0    0.0000
    225 C          88.7703  183.4524  142.3238 C.3      17        0    0.0000
    226 C          88.3630  182.8403  140.9807 C.3      17        0    0.0000
    227 H          90.4478  182.3285  143.1495 H        17        0    0.0000
    228 H          88.9375  181.4169  143.1092 H        17        0    0.0000
    229 H          89.9068  183.0398  145.3027 H        17        0    0.0000
    230 H          88.4128  182.1067  145.1975 H        17        0    0.0000
    231 H          88.9281  185.0195  144.5308 H        17        0    0.0000
    232 H          86.6563  183.4411  145.8281 H        17        0    0.0000
    233 H          86.4363  185.1205  145.3497 H        17        0    0.0000
    234 H          87.2906  185.0160  142.7306 H        17        0    0.0000
    235 H          86.7483  183.3732  143.1369 H        17        0    0.0000
    236 H          89.5240  184.2363  142.1594 H        17        0    0.0000
    237 H          88.5770  183.5393  140.1637 H        17        0    0.0000
    238 H          87.2799  182.6689  140.9745 H        17        0    0.0000
    239 C          86.8153  181.1056  137.7898 C.3      18        0    0.0000
    240 C          87.2658  180.5356  139.1370 C.3      18        0    0.0000
    241 C          88.7406  180.9391  139.3146 C.3      18        0    0.0000
    242 C          89.0785  181.4892  140.7058 C.3      18        0    0.0000
    243 C          88.9923  181.9648  138.2048 C.3      18        0    0.0000
    244 C          88.0943  181.5106  137.0490 C.3      18        0    0.0000
    245 C          88.7166  180.3567  136.2399 C.3      18        0    0.0000
    246 H          86.1899  180.3983  137.2369 H        18        0    0.0000
    247 H          86.2059  182.0003  137.9709 H        18        0    0.0000
    248 H          86.6216  180.9139  139.9383 H        18        0    0.0000
    249 H          87.1763  179.4430  139.1381 H        18        0    0.0000
    250 H          89.3660  180.0577  139.1130 H        18        0    0.0000
    251 H          88.7632  180.7670  141.4683 H        18        0    0.0000
    252 H          90.1619  181.6141  140.8154 H        18        0    0.0000
    253 H          90.0499  182.0167  137.9265 H        18        0    0.0000
    254 H          88.6865  182.9664  138.5337 H        18        0    0.0000
    255 H          87.8961  182.3591  136.3817 H        18        0    0.0000
    256 H          88.3917  179.3836  136.6245 H        18        0    0.0000
    257 H          89.8081  180.3901  136.3389 H        18        0    0.0000
    258 C          85.7030  183.0420  134.6677 C.3      19        0    0.0000
    259 C          86.4314  181.9818  135.4973 C.3      19        0    0.0000
    260 C          86.9140  180.9047  134.5093 C.3      19        0    0.0000
    261 C          88.3643  180.4562  134.7274 C.3      19        0    0.0000
    262 C          86.6982  181.5299  133.1273 C.3      19        0    0.0000
    263 C          85.4559  182.4119  133.2927 C.3      19        0    0.0000
    264 C          84.1472  181.6022  133.2241 C.3      19        0    0.0000
    265 H          84.7924  183.3920  135.1631 H        19        0    0.0000
    266 H          86.3609  183.9128  134.5514 H        19        0    0.0000
    267 H          87.2518  182.4431  136.0582 H        19        0    0.0000
    268 H          85.7490  181.5355  136.2301 H        19        0    0.0000
    269 H          86.2494  180.0334  134.5972 H        19        0    0.0000
    270 H          88.5123  179.4706  134.2701 H        19        0    0.0000
    271 H          89.0570  181.1446  134.2296 H        19        0    0.0000
    272 H          86.5798  180.7705  132.3476 H        19        0    0.0000
    273 H          87.5573  182.1558  132.8529 H        19        0    0.0000
    274 H          85.4479  183.1857  132.5146 H        19        0    0.0000
    275 H          83.2728  182.2534  133.3322 H        19        0    0.0000
    276 H          84.1172  180.8879  134.0554 H        19        0    0.0000
    277 C          84.0321  180.8023  131.8941 C.3      20        0    0.0000
    278 C          83.4530  179.3904  132.0634 C.3      20        0    0.0000
    279 H          83.3583  181.3704  131.2400 H        20        0    0.0000
    280 H          85.0069  180.7762  131.3931 H        20        0    0.0000
    281 H          83.7748  178.9380  133.0088 H        20        0    0.0000
    282 H          82.3598  179.4743  132.1120 H        20        0    0.0000
    283 C          82.7327  179.8149  127.6455 C.3      21        0    0.0000
    284 C          82.9562  180.0926  129.1312 C.3      21        0    0.0000
    285 C          84.1087  179.1786  129.5822 C.3      21        0    0.0000
    286 C          83.7802  178.4208  130.8754 C.3      21        0    0.0000
    287 C          84.3810  178.2680  128.3750 C.3      21        0    0.0000
    288 C          83.9992  179.1109  127.1515 C.3      21        0    0.0000
    289 C          85.0796  180.1183  126.7176 C.3      21        0    0.0000
    290 H          81.8766  179.1369  127.5361 H        21        0    0.0000
    291 H          82.4965  180.7264  127.0874 H        21        0    0.0000
    292 H          82.0321  179.9233  129.6947 H        21        0    0.0000
    293 H          83.2380  181.1413  129.2825 H        21        0    0.0000
    294 H          84.9926  179.8095  129.7517 H        21        0    0.0000
    295 H          84.6124  177.7638  131.1537 H        21        0    0.0000
    296 H          82.9103  177.7751  130.7056 H        21        0    0.0000
    297 H          85.4179  177.9191  128.3497 H        21        0    0.0000
    298 H          83.7365  177.3802  128.4145 H        21        0    0.0000
    299 H          83.7526  178.4581  126.3045 H        21        0    0.0000
    300 H          85.6070  180.5329  127.5834 H        21        0    0.0000
    301 H          84.6011  180.9636  126.2082 H        21        0    0.0000
    302 C          87.6855  176.2866  124.8729 C.3      22        0    0.0000
    303 C          87.7000  177.4923  125.8113 C.3      22        0    0.0000
    304 C          86.2432  177.9708  125.9371 C.3      22        0    0.0000
    305 C          86.1076  179.4860  125.7372 C.3      22        0    0.0000
    306 C          85.4660  177.1319  124.9108 C.3      22        0    0.0000
    307 C          86.2328  175.8062  124.8239 C.3      22        0    0.0000
    308 C          85.9191  174.8202  125.9640 C.3      22        0    0.0000
    309 H          87.9919  176.6131  123.8709 H        22        0    0.0000
    310 H          88.3894  175.5104  125.1892 H        22        0    0.0000
    311 H          88.3717  178.2675  125.4267 H        22        0    0.0000
    312 H          88.0774  177.1998  126.7982 H        22        0    0.0000
    313 H          85.8883  177.7094  126.9440 H        22        0    0.0000
    314 H          85.8177  179.7095  124.7039 H        22        0    0.0000
    315 H          87.0818  179.9616  125.9026 H        22        0    0.0000
    316 H          84.4171  177.0038  125.1954 H        22        0    0.0000
    317 H          85.4825  177.6211  123.9282 H        22        0    0.0000
    318 H          86.0371  175.3186  123.8603 H        22        0    0.0000
    319 H          85.5270  175.3417  126.8438 H        22        0    0.0000
    320 H          86.8464  174.3269  126.2798 H        22        0    0.0000
    321 C          85.5011  170.4802  123.8074 C.3      23        0    0.0000
    322 C          86.0463  171.5181  124.7913 C.3      23        0    0.0000
    323 C          85.4647  172.8777  124.3642 C.3      23        0    0.0000
    324 C          84.9146  173.7181  125.5232 C.3      23        0    0.0000
    325 C          84.3854  172.5251  123.3356 C.3      23        0    0.0000
    326 C          84.9175  171.2720  122.6321 C.3      23        0    0.0000
    327 C          85.9609  171.6047  121.5487 C.3      23        0    0.0000
    328 H          86.2664  169.7550  123.5146 H        23        0    0.0000
    329 H          84.6959  169.9178  124.2973 H        23        0    0.0000
    330 H          85.7747  171.2420  125.8162 H        23        0    0.0000
    331 H          87.1411  171.5504  124.7441 H        23        0    0.0000
    332 H          86.2541  173.4443  123.8499 H        23        0    0.0000
    333 H          83.9821  174.2024  125.2099 H        23        0    0.0000
    334 H          84.6684  173.0773  126.3776 H        23        0    0.0000
    335 H          84.1926  173.3515  122.6438 H        23        0    0.0000
    336 H          83.4398  172.2877  123.8401 H        23        0    0.0000
    337 H          84.0829  170.7221  122.1788 H        23        0    0.0000
    338 H          86.9776  171.5745  121.9558 H        23        0    0.0000
    339 H          85.7940  172.6252  121.1840 H        23        0    0.0000
    340 C          86.1443  167.1651  121.8601 C.3      24        0    0.0000
    341 C          86.2646  168.6776  121.9835 C.3      24        0    0.0000
    342 C          85.5687  169.1804  120.7144 C.3      24        0    0.0000
    343 C          85.8631  170.6350  120.3355 C.3      24        0    0.0000
    344 C          85.8934  168.1329  119.6315 C.3      24        0    0.0000
    345 C          86.4673  166.9159  120.3832 C.3      24        0    0.0000
    346 C          86.0476  165.5464  119.8405 C.3      24        0    0.0000
    347 H          86.8388  166.6441  122.5265 H        24        0    0.0000
    348 H          85.1264  166.8527  122.1179 H        24        0    0.0000
    349 H          85.7842  169.0532  122.8922 H        24        0    0.0000
    350 H          87.3218  168.9634  122.0145 H        24        0    0.0000
    351 H          84.4855  169.1186  120.8989 H        24        0    0.0000
    352 H          86.8048  170.6755  119.7754 H        24        0    0.0000
    353 H          85.0787  170.9950  119.6592 H        24        0    0.0000
    354 H          86.6262  168.4900  118.8998 H        24        0    0.0000
    355 H          84.9848  167.8954  119.0678 H        24        0    0.0000
    356 H          87.5618  166.9698  120.2826 H        24        0    0.0000
    357 H          86.1825  164.7934  120.6260 H        24        0    0.0000
    358 H          84.9771  165.5671  119.6044 H        24        0    0.0000
    359 C          88.5512  168.3847  117.9089 C.3      25        0    0.0000
    360 C          87.5703  167.5199  118.6857 C.3      25        0    0.0000
    361 C          87.4514  166.2685  117.8133 C.3      25        0    0.0000
    362 C          86.8311  165.0927  118.5722 C.3      25        0    0.0000
    363 C          88.8897  166.0289  117.3189 C.3      25        0    0.0000
    364 C          89.6150  167.3851  117.4375 C.3      25        0    0.0000
    365 C          90.4148  167.8141  116.2009 C.3      25        0    0.0000
    366 H          88.9808  169.1755  118.5318 H        25        0    0.0000
    367 H          88.0333  168.8629  117.0705 H        25        0    0.0000
    368 H          87.9789  167.2761  119.6739 H        25        0    0.0000
    369 H          86.6068  168.0191  118.8268 H        25        0    0.0000
    370 H          86.8258  166.5139  116.9428 H        25        0    0.0000
    371 H          86.1583  164.5304  117.9140 H        25        0    0.0000
    372 H          87.6241  164.3998  118.8776 H        25        0    0.0000
    373 H          89.4070  165.2916  117.9454 H        25        0    0.0000
    374 H          88.8865  165.6312  116.2986 H        25        0    0.0000
    375 H          90.3429  167.2810  118.2560 H        25        0    0.0000
    376 H          90.9626  168.7358  116.4306 H        25        0    0.0000
    377 H          89.7157  168.0577  115.3920 H        25        0    0.0000
    378 C          90.5944  163.2254  116.5169 C.3      26        0    0.0000
    379 C          90.1784  164.6939  116.6329 C.3      26        0    0.0000
    380 C          91.4755  165.5222  116.6069 C.3      26        0    0.0000
    381 C          91.4213  166.7461  115.6843 C.3      26        0    0.0000
    382 C          92.5584  164.5229  116.1875 C.3      26        0    0.0000
    383 C          92.1030  163.1871  116.7847 C.3      26        0    0.0000
    384 C          92.4494  163.0638  118.2806 C.3      26        0    0.0000
    385 H          90.0112  162.5830  117.1834 H        26        0    0.0000
    386 H          90.4023  162.8838  115.4917 H        26        0    0.0000
    387 H          89.4910  164.9540  115.8204 H        26        0    0.0000
    388 H          89.6457  164.8662  117.5754 H        26        0    0.0000
    389 H          91.6945  165.8523  117.6324 H        26        0    0.0000
    390 H          92.4163  167.2036  115.6291 H        26        0    0.0000
    391 H          91.1527  166.4457  114.6650 H        26        0    0.0000
    392 H          93.5522  164.8262  116.5327 H        26        0    0.0000
    393 H          92.5986  164.4398  115.0936 H        26        0    0.0000
    394 H          92.5673  162.3600  116.2328 H        26        0    0.0000
    395 H          92.1572  162.0843  118.6750 H        26        0    0.0000
    396 H          91.8877  163.8159  118.8474 H        26        0    0.0000
    397 C          93.9661  163.2929  118.5430 C.3      27        0    0.0000
    398 C          94.6596  162.1230  119.2556 C.3      27        0    0.0000
    399 H          94.4411  163.4238  117.5622 H        27        0    0.0000
    400 H          94.1088  164.2332  119.0883 H        27        0    0.0000
    401 H          95.4107  162.4799  119.9700 H        27        0    0.0000
    402 H          93.9030  161.5832  119.8393 H        27        0    0.0000
    403 C          98.2445  161.2950  115.8964 C.3      28        0    0.0000
    404 C          97.6817  160.9019  117.2537 C.3      28        0    0.0000
    405 C          96.3556  161.6693  117.3279 C.3      28        0    0.0000
    406 C          95.3098  161.0795  118.2824 C.3      28        0    0.0000
    407 C          95.8934  161.8456  115.8667 C.3      28        0    0.0000
    408 C          97.0126  161.2547  114.9899 C.3      28        0    0.0000
    409 C          97.2450  161.9894  113.6673 C.3      28        0    0.0000
    410 H          98.6710  162.3045  115.9401 H        28        0    0.0000
    411 H          99.0268  160.6066  115.5624 H        28        0    0.0000
    412 H          97.5337  159.8171  117.2884 H        28        0    0.0000
    413 H          98.3576  161.1737  118.0705 H        28        0    0.0000
    414 H          96.5878  162.6758  117.7069 H        28        0    0.0000
    415 H          94.5151  160.6078  117.6920 H        28        0    0.0000
    416 H          95.7748  160.2832  118.8756 H        28        0    0.0000
    417 H          95.7526  162.9145  115.6635 H        28        0    0.0000
    418 H          94.9375  161.3545  115.6564 H        28        0    0.0000
    419 H          96.7691  160.2017  114.7864 H        28        0    0.0000
    420 H          96.4507  161.7427  112.9529 H        28        0    0.0000
    421 H          97.1888  163.0710  113.8390 H        28        0    0.0000
    422 C         100.4281  159.4987  115.5916 C.3      29        0    0.0000
    423 C          99.3076  160.4636  115.2301 C.3      29        0    0.0000
    424 C          99.3558  160.4850  113.6988 C.3      29        0    0.0000
    425 C          98.6250  161.6557  113.0342 C.3      29        0    0.0000
    426 C         100.8474  160.3419  113.3378 C.3      29        0    0.0000
    427 C         101.5542  159.9097  114.6374 C.3      29        0    0.0000
    428 C         102.6792  158.8841  114.4676 C.3      29        0    0.0000
    429 H         100.7242  159.5908  116.6411 H        29        0    0.0000
    430 H         100.0984  158.4680  115.4203 H        29        0    0.0000
    431 H          98.3378  160.1234  115.6062 H        29        0    0.0000
    432 H          99.5137  161.4488  115.6627 H        29        0    0.0000
    433 H          98.8572  159.5676  113.3511 H        29        0    0.0000
    434 H          99.2600  162.5483  113.0830 H        29        0    0.0000
    435 H          98.4795  161.4304  111.9711 H        29        0    0.0000
    436 H         101.2889  161.2760  112.9742 H        29        0    0.0000
    437 H         100.9598  159.6119  112.5290 H        29        0    0.0000
    438 H         102.0170  160.8138  115.0610 H        29        0    0.0000
    439 H         102.2546  157.8747  114.5216 H        29        0    0.0000
    440 H         103.1128  158.9903  113.4661 H        29        0    0.0000
    441 C         103.6999  159.7834  119.2120 C.3      30        0    0.0000
    442 C         104.0133  158.8532  118.0501 C.3      30        0    0.0000
    443 C         103.3216  159.5360  116.8683 C.3      30        0    0.0000
    444 C         103.8200  159.0044  115.5222 C.3      30        0    0.0000
    445 C         103.5844  161.0343  117.1063 C.3      30        0    0.0000
    446 C         103.8868  161.1826  118.6116 C.3      30        0    0.0000
    447 C         103.1303  162.3089  119.3271 C.3      30        0    0.0000
    448 H         104.3656  159.6118  120.0637 H        30        0    0.0000
    449 H         102.6722  159.6130  119.5505 H        30        0    0.0000
    450 H         105.0972  158.7931  117.8934 H        30        0    0.0000
    451 H         103.6352  157.8409  118.2223 H        30        0    0.0000
    452 H         102.2394  159.3597  116.9541 H        30        0    0.0000
    453 H         104.6095  159.6549  115.1276 H        30        0    0.0000
    454 H         104.2706  158.0154  115.6677 H        30        0    0.0000
    455 H         104.4527  161.3809  116.5320 H        30        0    0.0000
    456 H         102.7284  161.6337  116.7790 H        30        0    0.0000
    457 H         104.9564  161.4271  118.6940 H        30        0    0.0000
    458 H         102.1720  161.9211  119.6925 H        30        0    0.0000
    459 H         102.8942  163.0960  118.6010 H        30        0    0.0000
    460 C         106.9526  160.7987  121.1800 C.3      31        0    0.0000
    461 C         105.7631  161.1553  120.3016 C.3      31        0    0.0000
    462 C         104.8713  161.9917  121.2279 C.3      31        0    0.0000
    463 C         103.9023  162.9459  120.5182 C.3      31        0    0.0000
    464 C         105.8273  162.6529  122.2420 C.3      31        0    0.0000
    465 C         107.2312  162.1051  121.9263 C.3      31        0    0.0000
    466 C         108.1251  161.8911  123.1503 C.3      31        0    0.0000
    467 H         106.6832  159.9949  121.8760 H        31        0    0.0000
    468 H         107.8127  160.4675  120.5902 H        31        0    0.0000
    469 H         106.1078  161.7269  119.4331 H        31        0    0.0000
    470 H         105.2465  160.2639  119.9320 H        31        0    0.0000
    471 H         104.2488  161.2859  121.7978 H        31        0    0.0000
    472 H         103.1745  163.3211  121.2476 H        31        0    0.0000
    473 H         104.4597  163.8171  120.1542 H        31        0    0.0000
    474 H         105.5142  162.3804  123.2576 H        31        0    0.0000
    475 H         105.8186  163.7467  122.1906 H        31        0    0.0000
    476 H         107.7225  162.8009  121.2307 H        31        0    0.0000
    477 H         107.9558  160.8935  123.5726 H        31        0    0.0000
    478 H         109.1767  161.9279  122.8418 H        31        0    0.0000
    479 C         107.8912  162.9607  124.2539 C.3      32        0    0.0000
    480 C         108.6274  162.6708  125.5697 C.3      32        0    0.0000
    481 H         108.2658  163.9128  123.8568 H        32        0    0.0000
    482 H         106.8153  163.0917  124.4193 H        32        0    0.0000
    483 H         108.4552  161.6412  125.9047 H        32        0    0.0000
    484 H         109.7051  162.7644  125.3846 H        32        0    0.0000
    485 C         110.4809  163.6835  129.6645 C.3      33        0    0.0000
    486 C         109.1847  164.2117  129.0518 C.3      33        0    0.0000
    487 C         108.6652  163.1152  128.1059 C.3      33        0    0.0000
    488 C         108.2788  163.6685  126.7280 C.3      33        0    0.0000
    489 C         109.7885  162.0676  128.0673 C.3      33        0    0.0000
    490 C         110.4698  162.1696  129.4379 C.3      33        0    0.0000
    491 C         109.7297  161.4291  130.5667 C.3      33        0    0.0000
    492 H         111.3317  164.1228  129.1281 H        33        0    0.0000
    493 H         110.5828  163.9645  130.7175 H        33        0    0.0000
    494 H         109.3637  165.1648  128.5423 H        33        0    0.0000
    495 H         108.4437  164.4008  129.8375 H        33        0    0.0000
    496 H         107.7786  162.6613  128.5708 H        33        0    0.0000
    497 H         108.7763  164.6289  126.5500 H        33        0    0.0000
    498 H         107.1996  163.8622  126.7053 H        33        0    0.0000
    499 H         109.4074  161.0649  127.8504 H        33        0    0.0000
    500 H         110.5167  162.3186  127.2850 H        33        0    0.0000
    501 H         111.5005  161.7975  129.3765 H        33        0    0.0000
    502 H         109.7893  160.3433  130.4355 H        33        0    0.0000
    503 H         108.6652  161.6907  130.5326 H        33        0    0.0000
    504 C         113.9778  161.1018  132.0804 C.3      34        0    0.0000
    505 C         112.7227  161.5537  131.3497 C.3      34        0    0.0000
    506 C         111.6009  161.1222  132.2964 C.3      34        0    0.0000
    507 C         110.2740  161.8130  131.9718 C.3      34        0    0.0000
    508 C         112.1631  161.4327  133.6957 C.3      34        0    0.0000
    509 C         113.6972  161.4774  133.5410 C.3      34        0    0.0000
    510 C         114.4877  160.6797  134.5860 C.3      34        0    0.0000
    511 H         114.8750  161.5971  131.6960 H        34        0    0.0000
    512 H         114.1091  160.0223  131.9493 H        34        0    0.0000
    513 H         112.7318  162.6425  131.2170 H        34        0    0.0000
    514 H         112.6333  161.0890  130.3631 H        34        0    0.0000
    515 H         111.4777  160.0327  132.2103 H        34        0    0.0000
    516 H         109.5226  161.5643  132.7306 H        34        0    0.0000
    517 H         110.4125  162.9000  132.0107 H        34        0    0.0000
    518 H         111.8124  162.4076  134.0569 H        34        0    0.0000
    519 H         111.8262  160.6858  134.4222 H        34        0    0.0000
    520 H         113.9945  162.5294  133.6648 H        34        0    0.0000
    521 H         115.5475  160.6729  134.3049 H        34        0    0.0000
    522 H         114.1509  159.6364  134.5665 H        34        0    0.0000
    523 C         117.6707  161.1938  137.8400 C.3      35        0    0.0000
    524 C         116.8484  161.1103  136.5513 C.3      35        0    0.0000
    525 C         115.4408  160.6629  136.9669 C.3      35        0    0.0000
    526 C         114.3562  161.2182  136.0396 C.3      35        0    0.0000
    527 C         115.3405  161.1349  138.4212 C.3      35        0    0.0000
    528 C         116.7256  160.7933  138.9805 C.3      35        0    0.0000
    529 C         117.0726  161.4940  140.2971 C.3      35        0    0.0000
    530 H         118.5427  160.5321  137.8020 H        35        0    0.0000
    531 H         118.0443  162.2167  137.9690 H        35        0    0.0000
    532 H         117.2906  160.4050  135.8395 H        35        0    0.0000
    533 H         116.8301  162.0933  136.0657 H        35        0    0.0000
    534 H         115.4124  159.5636  136.9521 H        35        0    0.0000
    535 H         114.4272  162.3122  136.0140 H        35        0    0.0000
    536 H         113.3611  160.9753  136.4302 H        35        0    0.0000
    537 H         114.5418  160.6197  138.9642 H        35        0    0.0000
    538 H         115.1517  162.2145  138.4718 H        35        0    0.0000
    539 H         116.7914  159.7036  139.1133 H        35        0    0.0000
    540 H         116.6991  162.5246  140.2893 H        35        0    0.0000
    541 H         118.1628  161.5536  140.3990 H        35        0    0.0000
    542 C         117.1145  157.0017  141.3183 C.3      36        0    0.0000
    543 C         116.8012  158.3312  140.6463 C.3      36        0    0.0000
    544 C         117.0921  159.3503  141.7528 C.3      36        0    0.0000
    545 C         116.5011  160.7462  141.5329 C.3      36        0    0.0000
    546 C         116.6804  158.6536  143.0646 C.3      36        0    0.0000
    547 C         116.4911  157.1661  142.7083 C.3      36        0    0.0000
    548 C         116.9706  156.1675  143.7662 C.3      36        0    0.0000
    549 H         116.6846  156.1563  140.7722 H        36        0    0.0000
    550 H         118.1996  156.8586  141.3676 H        36        0    0.0000
    551 H         117.4218  158.4977  139.7604 H        36        0    0.0000
    552 H         115.7511  158.3498  140.3345 H        36        0    0.0000
    553 H         118.1847  159.4761  141.7914 H        36        0    0.0000
    554 H         115.4137  160.6611  141.4212 H        36        0    0.0000
    555 H         116.6792  161.3558  142.4267 H        36        0    0.0000
    556 H         115.7498  159.0509  143.4837 H        36        0    0.0000
    557 H         117.4542  158.8146  143.8230 H        36        0    0.0000
    558 H         115.4087  157.0041  142.5935 H        36        0    0.0000
    559 H         116.1902  155.4143  143.9272 H        36        0    0.0000
    560 H         117.8489  155.6342  143.3836 H        36        0    0.0000
    561 C         115.5916  160.0134  145.8358 C.3      37        0    0.0000
    562 C         115.8171  158.8771  144.8355 C.3      37        0    0.0000
    563 C         117.2379  158.3423  145.0899 C.3      37        0    0.0000
    564 C         117.3344  156.8124  145.1372 C.3      37        0    0.0000
    565 C         117.6609  158.9947  146.4099 C.3      37        0    0.0000
    566 C         116.9721  160.3636  146.4018 C.3      37        0    0.0000
    567 C         117.7312  161.3982  145.5495 C.3      37        0    0.0000
    568 H         115.0736  160.8618  145.3786 H        37        0    0.0000
    569 H         114.9521  159.6465  146.6489 H        37        0    0.0000
    570 H         115.0450  158.1098  144.9595 H        37        0    0.0000
    571 H         115.7391  159.2520  143.8083 H        37        0    0.0000
    572 H         117.8965  158.7214  144.2954 H        37        0    0.0000
    573 H         118.3589  156.5211  145.3978 H        37        0    0.0000
    574 H         116.6812  156.4116  145.9208 H        37        0    0.0000
    575 H         118.7495  159.0670  146.5013 H        37        0    0.0000
    576 H         117.2952  158.4062  147.2614 H        37        0    0.0000
    577 H         116.8795  160.7350  147.4303 H        37        0    0.0000
    578 H         117.3694  162.4138  145.7448 H        37        0    0.0000
    579 H         117.5530  161.1954  144.4868 H        37        0    0.0000
    580 C         121.4241  159.4821  148.3003 C.3      38        0    0.0000
    581 C         121.1932  159.9883  146.8847 C.3      38        0    0.0000
    582 C         119.6952  160.3175  146.8616 C.3      38        0    0.0000
    583 C         119.2657  161.3409  145.8027 C.3      38        0    0.0000
    584 C         119.3241  160.6743  148.3157 C.3      38        0    0.0000
    585 C         120.5990  160.4511  149.1496 C.3      38        0    0.0000
    586 C         120.3543  159.9156  150.5625 C.3      38        0    0.0000
    587 H         121.0547  158.4542  148.4010 H        38        0    0.0000
    588 H         122.4842  159.4934  148.5716 H        38        0    0.0000
    589 H         121.8136  160.8733  146.7066 H        38        0    0.0000
    590 H         121.4583  159.2372  146.1340 H        38        0    0.0000
    591 H         119.1648  159.3837  146.6226 H        38        0    0.0000
    592 H         119.6079  162.3362  146.1104 H        38        0    0.0000
    593 H         119.7727  161.1128  144.8576 H        38        0    0.0000
    594 H         118.5120  160.0159  148.6485 H        38        0    0.0000
    595 H         118.9642  161.7025  148.4274 H        38        0    0.0000
    596 H         121.1420  161.4057  149.2082 H        38        0    0.0000
    597 H         121.2888  159.9207  151.1360 H        38        0    0.0000
    598 H         119.6596  160.5823  151.0873 H        38        0    0.0000
    599 C         119.4435  155.9110  153.3454 C.3      39        0    0.0000
    600 C         120.0293  156.3481  152.0100 C.3      39        0    0.0000
    601 C         119.6669  157.8356  151.9484 C.3      39        0    0.0000
    602 C         119.7619  158.4785  150.5614 C.3      39        0    0.0000
    603 C         118.2942  157.9478  152.6402 C.3      39        0    0.0000
    604 C         118.0768  156.6036  153.3621 C.3      39        0    0.0000
    605 C         117.4015  156.6925  154.7341 C.3      39        0    0.0000
    606 H         119.3538  154.8226  153.4158 H        39        0    0.0000
    607 H         120.0887  156.2528  154.1621 H        39        0    0.0000
    608 H         121.1107  156.1861  151.9654 H        39        0    0.0000
    609 H         119.5658  155.7770  151.1980 H        39        0    0.0000
    610 H         120.3877  158.3662  152.5887 H        39        0    0.0000
    611 H         120.3787  157.8438  149.9141 H        39        0    0.0000
    612 H         118.7624  158.5099  150.1117 H        39        0    0.0000
    613 H         117.4747  158.1210  151.9344 H        39        0    0.0000
    614 H         118.2981  158.8029  153.3246 H        39        0    0.0000
    615 H         117.4088  156.0063  152.7232 H        39        0    0.0000
    616 H         116.6973  155.8589  154.8412 H        39        0    0.0000
    617 H         118.1601  156.5665  155.5157 H        39        0    0.0000
    618 C         113.8316  156.8014  157.0818 C.3      40        0    0.0000
    619 C         114.3177  157.8727  156.1024 C.3      40        0    0.0000
    620 C         115.8404  157.9874  156.2959 C.3      40        0    0.0000
    621 C         116.6390  158.0276  154.9872 C.3      40        0    0.0000
    622 C         116.2068  156.7809  157.1662 C.3      40        0    0.0000
    623 C         114.9839  156.5678  158.0647 C.3      40        0    0.0000
    624 C         114.9612  157.5334  159.2648 C.3      40        0    0.0000
    625 H         112.8913  157.0863  157.5632 H        40        0    0.0000
    626 H         113.6401  155.8750  156.5253 H        40        0    0.0000
    627 H         114.0381  157.5995  155.0790 H        40        0    0.0000
    628 H         113.8411  158.8351  156.3224 H        40        0    0.0000
    629 H         116.0470  158.8999  156.8733 H        40        0    0.0000
    630 H         115.9538  158.2013  154.1489 H        40        0    0.0000
    631 H         117.3478  158.8636  154.9966 H        40        0    0.0000
    632 H         117.1276  156.9494  157.7341 H        40        0    0.0000
    633 H         116.3609  155.8918  156.5411 H        40        0    0.0000
    634 H         114.9707  155.5326  158.4287 H        40        0    0.0000
    635 H         114.3932  158.4409  159.0318 H        40        0    0.0000
    636 H         115.9852  157.8493  159.4971 H        40        0    0.0000
    637 C         113.7108  158.2602  163.9103 C.3      41        0    0.0000
    638 C         113.7637  158.5354  162.4056 C.3      41        0    0.0000
    639 C         114.8103  157.5716  161.8184 C.3      41        0    0.0000
    640 C         114.3616  156.8626  160.5346 C.3      41        0    0.0000
    641 C         115.1045  156.5882  162.9557 C.3      41        0    0.0000
    642 C         114.9506  157.4194  164.2339 C.3      41        0    0.0000
    643 C         116.1984  158.2713  164.5345 C.3      41        0    0.0000
    644 H         113.6403  159.1847  164.4913 H        41        0    0.0000
    645 H         112.8103  157.6727  164.1305 H        41        0    0.0000
    646 H         112.7692  158.4035  161.9652 H        41        0    0.0000
    647 H         114.0660  159.5723  162.2178 H        41        0    0.0000
    648 H         115.7280  158.1417  161.6143 H        41        0    0.0000
    649 H         114.6898  155.8168  160.5636 H        41        0    0.0000
    650 H         113.2677  156.8504  160.4663 H        41        0    0.0000
    651 H         116.0966  156.1353  162.8599 H        41        0    0.0000
    652 H         114.3675  155.7747  162.9574 H        41        0    0.0000
    653 H         114.7492  156.7543  165.0833 H        41        0    0.0000
    654 H         116.1074  159.2733  164.1006 H        41        0    0.0000
    655 H         117.0775  157.8039  164.0751 H        41        0    0.0000
    656 C         113.8801  160.6204  167.4302 C.3      42        0    0.0000
    657 C         114.2858  159.7181  166.2658 C.3      42        0    0.0000
    658 C         115.1627  158.6013  166.8581 C.3      42        0    0.0000
    659 C         116.4590  158.3944  166.0638 C.3      42        0    0.0000
    660 C         115.3842  159.0128  168.3218 C.3      42        0    0.0000
    661 C         114.1277  159.8061  168.7026 C.3      42        0    0.0000
    662 C         112.9144  158.9303  169.0647 C.3      42        0    0.0000
    663 H         114.5289  161.5056  167.4358 H        42        0    0.0000
    664 H         112.8492  160.9759  167.3356 H        42        0    0.0000
    665 H         114.8002  160.2997  165.4931 H        42        0    0.0000
    666 H         113.3962  159.2786  165.7992 H        42        0    0.0000
    667 H         114.5795  157.6697  166.8404 H        42        0    0.0000
    668 H         116.9865  157.5024  166.4212 H        42        0    0.0000
    669 H         117.1276  159.2469  166.2337 H        42        0    0.0000
    670 H         115.5590  158.1480  168.9693 H        42        0    0.0000
    671 H         116.2612  159.6680  168.4047 H        42        0    0.0000
    672 H         114.3468  160.4834  169.5380 H        42        0    0.0000
    673 H         113.1597  158.2221  169.8634 H        42        0    0.0000
    674 H         112.6286  158.3309  168.1917 H        42        0    0.0000
    675 C         111.6840  159.7825  169.4861 C.3      43        0    0.0000
    676 C         110.9395  159.2388  170.7139 C.3      43        0    0.0000
    677 H         112.0611  160.7834  169.7323 H        43        0    0.0000
    678 H         111.0083  159.9037  168.6313 H        43        0    0.0000
    679 H         110.3077  158.3824  170.4504 H        43        0    0.0000
    680 H         111.6860  158.8697  171.4288 H        43        0    0.0000
    681 C         110.0846  163.5159  169.4198 C.3      44        0    0.0000
    682 C         110.7423  162.2035  169.8229 C.3      44        0    0.0000
    683 C         109.6282  161.4847  170.5909 C.3      44        0    0.0000
    684 C         110.0837  160.3146  171.4681 C.3      44        0    0.0000
    685 C         108.8535  162.5998  171.3202 C.3      44        0    0.0000
    686 C         109.3284  163.9230  170.6886 C.3      44        0    0.0000
    687 C         108.2451  164.9885  170.4950 C.3      44        0    0.0000
    688 H         110.8217  164.2678  169.1212 H        44        0    0.0000
    689 H         109.4093  163.3468  168.5738 H        44        0    0.0000
    690 H         111.0781  161.6304  168.9531 H        44        0    0.0000
    691 H         111.6143  162.4054  170.4546 H        44        0    0.0000
    692 H         108.9432  161.0637  169.8394 H        44        0    0.0000
    693 H         110.6694  160.7044  172.3090 H        44        0    0.0000
    694 H         109.2021  159.8249  171.8985 H        44        0    0.0000
    695 H         109.0478  162.6182  172.3980 H        44        0    0.0000
    696 H         107.7771  162.4344  171.2032 H        44        0    0.0000
    697 H         110.0704  164.3537  171.3778 H        44        0    0.0000
    698 H         108.6692  165.9749  170.7173 H        44        0    0.0000
    699 H         107.9435  165.0056  169.4410 H        44        0    0.0000
    700 C         107.4291  162.8388  174.5780 C.3      45        0    0.0000
    701 C         107.9838  163.7361  173.4686 C.3      45        0    0.0000
    702 C         107.0748  163.5266  172.2504 C.3      45        0    0.0000
    703 C         106.9764  164.7793  171.3753 C.3      45        0    0.0000
    704 C         105.7498  163.0800  172.8773 C.3      45        0    0.0000
    705 C         106.2081  162.1244  173.9840 C.3      45        0    0.0000
    706 C         105.1440  161.8145  175.0405 C.3      45        0    0.0000
    707 H         108.1782  162.1169  174.9209 H        45        0    0.0000
    708 H         107.1526  163.4550  175.4419 H        45        0    0.0000
    709 H         109.0229  163.4834  173.2314 H        45        0    0.0000
    710 H         107.9718  164.7803  173.8034 H        45        0    0.0000
    711 H         107.4814  162.6934  171.6588 H        45        0    0.0000
    712 H         106.8478  165.6595  172.0164 H        45        0    0.0000
    713 H         106.0906  164.7249  170.7317 H        45        0    0.0000
    714 H         105.1006  162.5822  172.1500 H        45        0    0.0000
    715 H         105.2058  163.9353  173.2971 H        45        0    0.0000
    716 H         106.5512  161.1885  173.5193 H        45        0    0.0000
    717 H         104.7449  162.7444  175.4623 H        45        0    0.0000
    718 H         105.6059  161.2643  175.8689 H        45        0    0.0000
    719 C         101.7026  161.4824  177.4563 C.3      46        0    0.0000
    720 C         103.0691  161.1227  176.8934 C.3      46        0    0.0000
    721 C         102.7796  160.8143  175.4189 C.3      46        0    0.0000
    722 C         103.9768  160.9621  174.4714 C.3      46        0    0.0000
    723 C         101.5383  161.6540  175.0531 C.3      46        0    0.0000
    724 C         101.0951  162.3507  176.3526 C.3      46        0    0.0000
    725 C          99.5807  162.5083  176.5101 C.3      46        0    0.0000
    726 H         101.1080  160.5751  177.6187 H        46        0    0.0000
    727 H         101.7794  162.0168  178.4082 H        46        0    0.0000
    728 H         103.7493  161.9731  177.0118 H        46        0    0.0000
    729 H         103.5115  160.2658  177.4111 H        46        0    0.0000
    730 H         102.4714  159.7594  175.3659 H        46        0    0.0000
    731 H         104.3593  159.9648  174.2232 H        46        0    0.0000
    732 H         103.6359  161.4107  173.5307 H        46        0    0.0000
    733 H         100.7549  160.9861  174.6738 H        46        0    0.0000
    734 H         101.7345  162.3907  174.2670 H        46        0    0.0000
    735 H         101.5727  163.3406  176.3912 H        46        0    0.0000
    736 H          99.2506  162.0639  177.4565 H        46        0    0.0000
    737 H          99.3306  163.5748  176.5592 H        46        0    0.0000
    738 C          95.2559  161.3223  176.6296 C.3      47        0    0.0000
    739 C          96.7322  161.5889  176.8881 C.3      47        0    0.0000
    740 C          97.2667  161.9319  175.4937 C.3      47        0    0.0000
    741 C          98.7890  161.8635  175.3380 C.3      47        0    0.0000
    742 C          96.4590  161.0501  174.5213 C.3      47        0    0.0000
    743 C          95.2788  160.4932  175.3413 C.3      47        0    0.0000
    744 C          93.9437  160.3986  174.5965 C.3      47        0    0.0000
    745 H          94.7869  160.7822  177.4579 H        47        0    0.0000
    746 H          94.7256  162.2721  176.4992 H        47        0    0.0000
    747 H          96.8814  162.4078  177.5986 H        47        0    0.0000
    748 H          97.2038  160.6903  177.3007 H        47        0    0.0000
    749 H          96.9782  162.9740  175.2890 H        47        0    0.0000
    750 H          99.0923  160.8141  175.2431 H        47        0    0.0000
    751 H          99.0763  162.3601  174.4036 H        47        0    0.0000
    752 H          97.0450  160.2198  174.1128 H        47        0    0.0000
    753 H          96.1361  161.6511  173.6644 H        47        0    0.0000
    754 H          95.5502  159.4659  175.6279 H        47        0    0.0000
    755 H          93.4016  161.3447  174.7118 H        47        0    0.0000
    756 H          94.1391  160.2761  173.5246 H        47        0    0.0000
    757 C          95.1626  156.1895  175.7919 C.3      48        0    0.0000
    758 C          95.0514  157.6833  175.5278 C.3      48        0    0.0000
    759 C          93.6462  157.8385  174.9325 C.3      48        0    0.0000
    760 C          93.0252  159.2340  175.0741 C.3      48        0    0.0000
    761 C          92.8138  156.6808  175.5210 C.3      48        0    0.0000
    762 C          93.7881  155.8398  176.3660 C.3      48        0    0.0000
    763 C          93.5193  154.3331  176.3428 C.3      48        0    0.0000
    764 H          95.3488  155.6510  174.8547 H        48        0    0.0000
    765 H          95.9736  155.9559  176.4884 H        48        0    0.0000
    766 H          95.1639  158.2310  176.4697 H        48        0    0.0000
    767 H          95.8275  158.0356  174.8410 H        48        0    0.0000
    768 H          93.7317  157.6460  173.8527 H        48        0    0.0000
    769 H          92.0904  159.2671  174.5018 H        48        0    0.0000
    770 H          92.7567  159.4018  176.1239 H        48        0    0.0000
    771 H          92.3912  156.0909  174.6981 H        48        0    0.0000
    772 H          91.9709  157.0240  176.1301 H        48        0    0.0000
    773 H          93.7452  156.2039  177.4028 H        48        0    0.0000
    774 H          94.2022  153.8378  175.6424 H        48        0    0.0000
    775 H          93.7263  153.9128  177.3342 H        48        0    0.0000
    776 C          90.7400  155.8627  173.5943 C.3      49        0    0.0000
    777 C          91.5800  156.2181  174.8241 C.3      49        0    0.0000
    778 C          91.1596  155.2496  175.9351 C.3      49        0    0.0000
    779 C          92.0528  153.9948  175.9537 C.3      49        0    0.0000
    780 C          89.6907  154.9786  175.5861 C.3      49        0    0.0000
    781 C          89.6798  154.8512  174.0607 C.3      49        0    0.0000
    782 C          88.2844  155.0746  173.4669 C.3      49        0    0.0000
    783 H          90.2949  156.7721  173.1749 H        49        0    0.0000
    784 H          91.3684  155.4191  172.8135 H        49        0    0.0000
    785 H          91.3422  157.2449  175.1297 H        49        0    0.0000
    786 H          92.6529  156.1886  174.6087 H        49        0    0.0000
    787 H          91.2279  155.7496  176.9098 H        49        0    0.0000
    788 H          92.0579  153.5413  174.9551 H        49        0    0.0000
    789 H          91.6587  153.2367  176.6389 H        49        0    0.0000
    790 H          89.0787  155.8341  175.9007 H        49        0    0.0000
    791 H          89.2823  154.0876  176.0724 H        49        0    0.0000
    792 H          90.0238  153.8418  173.7946 H        49        0    0.0000
    793 H          88.3225  155.0204  172.3727 H        49        0    0.0000
    794 H          87.9366  156.0822  173.7235 H        49        0    0.0000
    795 C          87.2547  154.0391  174.0034 C.3      50        0    0.0000
    796 C          86.3630  153.4246  172.9150 C.3      50        0    0.0000
    797 H          87.8323  153.2294  174.4677 H        50        0    0.0000
    798 H          86.6551  154.4934  174.8008 H        50        0    0.0000
    799 H          85.5204  154.0822  172.6713 H        50        0    0.0000
    800 H          86.9607  153.3281  171.9995 H        50        0    0.0000
    801 C          84.5226  151.9096  176.8158 C.3      51        0    0.0000
    802 C          84.9419  152.7044  175.5887 C.3      51        0    0.0000
    803 C          85.7468  151.6923  174.7637 C.3      51        0    0.0000
    804 C          85.8312  151.9908  173.2615 C.3      51        0    0.0000
    805 C          85.1773  150.3069  175.1323 C.3      51        0    0.0000
    806 C          84.1232  150.5551  176.2269 C.3      51        0    0.0000
    807 C          84.0408  149.4626  177.2958 C.3      51        0    0.0000
    808 H          85.3669  151.8067  177.5083 H        51        0    0.0000
    809 H          83.6967  152.3879  177.3511 H        51        0    0.0000
    810 H          84.0504  153.0548  175.0572 H        51        0    0.0000
    811 H          85.5393  153.5821  175.8549 H        51        0    0.0000
    812 H          86.7794  151.7178  175.1428 H        51        0    0.0000
    813 H          86.4860  151.2497  172.7877 H        51        0    0.0000
    814 H          84.8380  151.8635  172.8147 H        51        0    0.0000
    815 H          85.9925  149.6730  175.5030 H        51        0    0.0000
    816 H          84.7326  149.7843  174.2789 H        51        0    0.0000
    817 H          83.1433  150.6667  175.7404 H        51        0    0.0000
    818 H          85.0328  149.0298  177.4716 H        51        0    0.0000
    819 H          83.7193  149.9079  178.2448 H        51        0    0.0000
    820 C          81.2525  149.2768  174.3344 C.3      52        0    0.0000
    821 C          81.5619  149.9652  175.6665 C.3      52        0    0.0000
    822 C          81.6141  148.8605  176.7275 C.3      52        0    0.0000
    823 C          83.0477  148.3291  176.9147 C.3      52        0    0.0000
    824 C          80.6231  147.8314  176.1687 C.3      52        0    0.0000
    825 C          80.8992  147.8168  174.6631 C.3      52        0    0.0000
    826 C          79.7221  147.2520  173.8600 C.3      52        0    0.0000
    827 H          80.4344  149.8016  173.8280 H        52        0    0.0000
    828 H          82.1231  149.3149  173.6696 H        52        0    0.0000
    829 H          80.7446  150.6577  175.9047 H        52        0    0.0000
    830 H          82.4801  150.5592  175.6161 H        52        0    0.0000
    831 H          81.2504  149.2492  177.6873 H        52        0    0.0000
    832 H          83.3887  147.8742  175.9768 H        52        0    0.0000
    833 H          83.0834  147.5414  177.6748 H        52        0    0.0000
    834 H          79.5977  148.1714  176.3641 H        52        0    0.0000
    835 H          80.7283  146.8367  176.6121 H        52        0    0.0000
    836 H          81.7875  147.1960  174.4796 H        52        0    0.0000
    837 H          80.0689  146.8693  172.8930 H        52        0    0.0000
    838 H          79.0081  148.0561  173.6462 H        52        0    0.0000
    839 C          78.9842  146.1211  174.6326 C.3      53        0    0.0000
    840 C          79.1169  144.7347  173.9863 C.3      53        0    0.0000
    841 H          77.9200  146.3895  174.6470 H        53        0    0.0000
    842 H          79.3183  146.1082  175.6767 H        53        0    0.0000
    843 H          78.1881  144.5228  173.4413 H        53        0    0.0000
    844 H          79.9258  144.7153  173.2465 H        53        0    0.0000
    845 C          79.0255  139.9069  174.1514 C.3      54        0    0.0000
    846 C          79.8052  141.2118  174.2057 C.3      54        0    0.0000
    847 C          78.7224  142.2450  174.5237 C.3      54        0    0.0000
    848 C          79.3141  143.5683  175.0155 C.3      54        0    0.0000
    849 C          77.8182  141.5261  175.5417 C.3      54        0    0.0000
    850 C          78.0605  140.0162  175.3387 C.3      54        0    0.0000
    851 C          76.7955  139.1546  175.2363 C.3      54        0    0.0000
    852 H          79.6817  139.0350  174.2368 H        54        0    0.0000
    853 H          78.4970  139.8358  173.1946 H        54        0    0.0000
    854 H          80.5592  141.1708  175.0013 H        54        0    0.0000
    855 H          80.3150  141.4240  173.2610 H        54        0    0.0000
    856 H          78.1368  142.4223  173.6099 H        54        0    0.0000
    857 H          78.8623  143.8517  175.9735 H        54        0    0.0000
    858 H          80.3872  143.4390  175.1998 H        54        0    0.0000
    859 H          78.0869  141.7954  176.5707 H        54        0    0.0000
    860 H          76.7715  141.8159  175.4013 H        54        0    0.0000
    861 H          78.6041  139.6635  176.2279 H        54        0    0.0000
    862 H          77.0856  138.0999  175.1611 H        54        0    0.0000
    863 H          76.2703  139.4029  174.3063 H        54        0    0.0000
    864 C          77.3385  139.8522  179.8500 C.3      55        0    0.0000
    865 C          77.3735  140.0784  178.3463 C.3      55        0    0.0000
    866 C          76.4131  139.0137  177.8012 C.3      55        0    0.0000
    867 C          75.8068  139.3208  176.4260 C.3      55        0    0.0000
    868 C          75.3948  138.7533  178.9303 C.3      55        0    0.0000
    869 C          75.8533  139.6088  180.1255 C.3      55        0    0.0000
    870 C          75.6176  138.9711  181.4969 C.3      55        0    0.0000
    871 H          77.9396  138.9742  180.1160 H        55        0    0.0000
    872 H          77.7262  140.7133  180.4029 H        55        0    0.0000
    873 H          77.0340  141.0952  178.1210 H        55        0    0.0000
    874 H          78.3832  139.9649  177.9395 H        55        0    0.0000
    875 H          76.9943  138.0871  177.6833 H        55        0    0.0000
    876 H          74.9461  138.6616  176.2615 H        55        0    0.0000
    877 H          75.4210  140.3471  176.4256 H        55        0    0.0000
    878 H          75.4044  137.6850  179.1800 H        55        0    0.0000
    879 H          74.3668  139.0034  178.6477 H        55        0    0.0000
    880 H          75.3309  140.5753  180.0759 H        55        0    0.0000
    881 H          76.1113  139.5611  182.2782 H        55        0    0.0000
    882 H          74.5448  138.9846  181.7232 H        55        0    0.0000
    883 C          76.1239  137.5030  181.5670 C.3      56        0    0.0000
    884 C          75.1743  136.5503  182.3072 C.3      56        0    0.0000
    885 H          77.0778  137.5224  182.1094 H        56        0    0.0000
    886 H          76.3454  137.1400  180.5564 H        56        0    0.0000
    887 H          75.2963  136.7175  183.3851 H        56        0    0.0000
    888 H          74.1262  136.7699  182.0726 H        56        0    0.0000
    889 C          79.0894  134.3518  182.4799 C.3      57        0    0.0000
    890 C          77.9982  135.4186  182.3615 C.3      57        0    0.0000
    891 C          76.8800  134.8102  181.4962 C.3      57        0    0.0000
    892 C          75.4667  135.0316  182.0490 C.3      57        0    0.0000
    893 C          77.2409  133.3247  181.3949 C.3      57        0    0.0000
    894 C          78.7730  133.2977  181.4134 C.3      57        0    0.0000
    895 C          79.3829  133.6265  180.0376 C.3      57        0    0.0000
    896 H          80.0914  134.7824  182.3916 H        57        0    0.0000
    897 H          79.0247  133.8892  183.4731 H        57        0    0.0000
    898 H          77.6523  135.7134  183.3583 H        57        0    0.0000
    899 H          78.3954  136.3184  181.8773 H        57        0    0.0000
    900 H          76.9466  135.2469  180.4894 H        57        0    0.0000
    901 H          74.7316  134.6533  181.3286 H        57        0    0.0000
    902 H          75.3246  134.4636  182.9756 H        57        0    0.0000
    903 H          76.8182  132.8602  180.4982 H        57        0    0.0000
    904 H          76.8549  132.7777  182.2649 H        57        0    0.0000
    905 H          79.1197  132.3090  181.7397 H        57        0    0.0000
    906 H          80.2531  134.2847  180.1375 H        57        0    0.0000
    907 H          78.6445  134.1644  179.4312 H        57        0    0.0000
    908 C          79.7970  132.3394  179.2669 C.3      58        0    0.0000
    909 C          78.7365  131.8368  178.2768 C.3      58        0    0.0000
    910 H          80.7025  132.5878  178.6987 H        58        0    0.0000
    911 H          80.0795  131.5564  179.9803 H        58        0    0.0000
    912 H          78.4642  132.6154  177.5546 H        58        0    0.0000
    913 H          79.1736  131.0122  177.6992 H        58        0    0.0000
    914 C          78.9397  131.8835  181.8181 C.3      59        0    0.0000
    915 C          79.1551  130.7886  180.7697 C.3      59        0    0.0000
    916 C          77.7709  130.4391  180.2123 C.3      59        0    0.0000
    917 C          77.4423  131.2744  178.9605 C.3      59        0    0.0000
    918 C          76.8609  130.7141  181.4162 C.3      59        0    0.0000
    919 C          77.4211  131.9998  182.0299 C.3      59        0    0.0000
    920 C          76.9958  132.1817  183.4914 C.3      59        0    0.0000
    921 H          79.4721  131.6229  182.7399 H        59        0    0.0000
    922 H          79.3469  132.8386  181.4672 H        59        0    0.0000
    923 H          79.5803  129.9055  181.2632 H        59        0    0.0000
    924 H          79.8665  131.0970  179.9968 H        59        0    0.0000
    925 H          77.7339  129.3741  179.9494 H        59        0    0.0000
    926 H          76.8096  132.1224  179.2491 H        59        0    0.0000
    927 H          76.8689  130.6905  178.2325 H        59        0    0.0000
    928 H          76.9430  129.8845  182.1306 H        59        0    0.0000
    929 H          75.8040  130.8153  181.1522 H        59        0    0.0000
    930 H          77.0540  132.8529  181.4423 H        59        0    0.0000
    931 H          76.0126  131.7279  183.6617 H        59        0    0.0000
    932 H          76.8949  133.2511  183.7107 H        59        0    0.0000
    933 C          76.1850  129.5137  187.0715 C.3      60        0    0.0000
    934 C          76.1899  130.2513  185.7413 C.3      60        0    0.0000
    935 C          77.4422  131.1333  185.8251 C.3      60        0    0.0000
    936 C          78.0307  131.5653  184.4760 C.3      60        0    0.0000
    937 C          78.4144  130.3891  186.7635 C.3      60        0    0.0000
    938 C          77.6574  129.1456  187.2647 C.3      60        0    0.0000
    939 C          77.9677  128.7465  188.7095 C.3      60        0    0.0000
    940 H          75.8343  130.1766  187.8719 H        60        0    0.0000
    941 H          75.5375  128.6319  187.0484 H        60        0    0.0000
    942 H          76.2486  129.5273  184.9214 H        60        0    0.0000
    943 H          75.2810  130.8444  185.5995 H        60        0    0.0000
    944 H          77.1498  132.0575  186.3454 H        60        0    0.0000
    945 H          78.8261  132.2990  184.6535 H        60        0    0.0000
    946 H          78.5033  130.6994  183.9975 H        60        0    0.0000
    947 H          78.6845  131.0514  187.5954 H        60        0    0.0000
    948 H          79.3494  130.1004  186.2719 H        60        0    0.0000
    949 H          77.8935  128.3067  186.5939 H        60        0    0.0000
    950 H          78.1001  127.6604  188.7818 H        60        0    0.0000
    951 H          78.9182  129.2002  189.0146 H        60        0    0.0000
    952 C          77.7762  128.4166  193.2783 C.3      61        0    0.0000
    953 C          78.1604  128.5871  191.8062 C.3      61        0    0.0000
    954 C          76.8731  128.3775  190.9981 C.3      61        0    0.0000
    955 C          76.8593  129.1944  189.7031 C.3      61        0    0.0000
    956 C          75.7710  128.7457  191.9971 C.3      61        0    0.0000
    957 C          76.2727  128.1111  193.2984 C.3      61        0    0.0000
    958 C          75.5900  128.6311  194.5665 C.3      61        0    0.0000
    959 H          78.3472  127.6098  193.7502 H        61        0    0.0000
    960 H          78.0055  129.3394  193.8246 H        61        0    0.0000
    961 H          78.9323  127.8694  191.5084 H        61        0    0.0000
    962 H          78.5729  129.5912  191.6505 H        61        0    0.0000
    963 H          76.7880  127.3070  190.7608 H        61        0    0.0000
    964 H          77.0122  130.2538  189.9417 H        61        0    0.0000
    965 H          75.8801  129.1184  189.2159 H        61        0    0.0000
    966 H          74.7968  128.3470  191.6966 H        61        0    0.0000
    967 H          75.6816  129.8345  192.0998 H        61        0    0.0000
    968 H          76.1436  127.0211  193.2296 H        61        0    0.0000
    969 H          74.6224  129.0834  194.3193 H        61        0    0.0000
    970 H          76.2051  129.4233  195.0099 H        61        0    0.0000
    971 C          75.3832  127.5147  195.6265 C.3      62        0    0.0000
    972 C          74.3134  127.8430  196.6778 C.3      62        0    0.0000
    973 H          75.0619  126.6171  195.0827 H        62        0    0.0000
    974 H          76.3426  127.2695  196.0969 H        62        0    0.0000
    975 H          74.4754  128.8350  197.1154 H        62        0    0.0000
    976 H          73.3394  127.8780  196.1730 H        62        0    0.0000
    977 C          75.2899  128.4906  200.8736 C.3      63        0    0.0000
    978 C          74.7343  128.6546  199.4598 C.3      63        0    0.0000
    979 C          73.8720  127.4120  199.1779 C.3      63        0    0.0000
    980 C          74.1933  126.7750  197.8196 C.3      63        0    0.0000
    981 C          74.1180  126.4848  200.3782 C.3      63        0    0.0000
    982 C          74.4194  127.4282  201.5496 C.3      63        0    0.0000
    983 C          73.1680  128.0455  202.2004 C.3      63        0    0.0000
    984 H          76.3223  128.1238  200.8088 H        63        0    0.0000
    985 H          75.3178  129.4399  201.4176 H        63        0    0.0000
    986 H          75.5511  128.7789  198.7405 H        63        0    0.0000
    987 H          74.1121  129.5553  199.3994 H        63        0    0.0000
    988 H          72.8181  127.7242  199.1866 H        63        0    0.0000
    989 H          73.4280  126.0362  197.5548 H        63        0    0.0000
    990 H          75.1447  126.2341  197.8894 H        63        0    0.0000
    991 H          73.2668  125.8235  200.5671 H        63        0    0.0000
    992 H          74.9939  125.8489  200.1949 H        63        0    0.0000
    993 H          75.0043  126.9042  202.3163 H        63        0    0.0000
    994 H          72.3182  128.0424  201.5094 H        63        0    0.0000
    995 H          73.3691  129.0956  202.4446 H        63        0    0.0000
    996 C          74.6257  124.1226  202.7355 C.3      64        0    0.0000
    997 C          73.9228  125.4050  202.2828 C.3      64        0    0.0000
    998 C          72.9707  125.7987  203.4197 C.3      64        0    0.0000
    999 C          72.7719  127.3140  203.5141 C.3      64        0    0.0000
   1000 C          73.6193  125.1618  204.6533 C.3      64        0    0.0000
   1001 C          74.0690  123.7947  204.1272 C.3      64        0    0.0000
   1002 C          75.0939  123.0770  205.0098 C.3      64        0    0.0000
   1003 H          74.4452  123.2991  202.0363 H        64        0    0.0000
   1004 H          75.7088  124.2913  202.7661 H        64        0    0.0000
   1005 H          73.3748  125.2520  201.3468 H        64        0    0.0000
   1006 H          74.6708  126.1853  202.0974 H        64        0    0.0000
   1007 H          72.0023  125.3093  203.2405 H        64        0    0.0000
   1008 H          73.3859  127.7094  204.3321 H        64        0    0.0000
   1009 H          71.7292  127.5461  203.7608 H        64        0    0.0000
   1010 H          72.9130  125.0680  205.4843 H        64        0    0.0000
   1011 H          74.4780  125.7531  204.9952 H        64        0    0.0000
   1012 H          73.1810  123.1585  203.9998 H        64        0    0.0000
   1013 H          76.0454  123.6217  205.0075 H        64        0    0.0000
   1014 H          75.2976  122.0833  204.5932 H        64        0    0.0000
   1015 C          74.5987  122.9076  206.4723 C.3      65        0    0.0000
   1016 C          74.6496  121.4611  206.9845 C.3      65        0    0.0000
   1017 H          73.5528  123.2396  206.4931 H        65        0    0.0000
   1018 H          75.1554  123.5840  207.1315 H        65        0    0.0000
   1019 H          75.4303  120.9293  206.4257 H        65        0    0.0000
   1020 H          74.9389  121.4220  208.0413 H        65        0    0.0000
   1021 C          71.6634  123.5975  208.3289 C.3      66        0    0.0000
   1022 C          72.5337  122.3581  208.5516 C.3      66        0    0.0000
   1023 C          72.1311  121.3379  207.4716 C.3      66        0    0.0000
   1024 C          73.3170  120.6626  206.7717 C.3      66        0    0.0000
   1025 C          71.2570  122.1360  206.4990 C.3      66        0    0.0000
   1026 C          70.5404  123.1651  207.3799 C.3      66        0    0.0000
   1027 C          69.3252  122.5661  208.1132 C.3      66        0    0.0000
   1028 H          71.3059  124.0192  209.2731 H        66        0    0.0000
   1029 H          72.2693  124.3712  207.8401 H        66        0    0.0000
   1030 H          73.5937  122.6311  208.5052 H        66        0    0.0000
   1031 H          72.3508  121.9375  209.5473 H        66        0    0.0000
   1032 H          71.5030  120.5677  207.9418 H        66        0    0.0000
   1033 H          73.4489  119.6515  207.1750 H        66        0    0.0000
   1034 H          73.1171  120.5534  205.6995 H        66        0    0.0000
   1035 H          70.5640  121.4923  205.9476 H        66        0    0.0000
   1036 H          71.8825  122.6571  205.7627 H        66        0    0.0000
   1037 H          70.2140  124.0128  206.7641 H        66        0    0.0000
   1038 H          69.6396  121.8515  208.8818 H        66        0    0.0000
   1039 H          68.7051  122.0126  207.3980 H        66        0    0.0000
   1040 H          68.7074  123.3390  208.5705 H        66        0    0.0000
   1041 H          70.1748  199.8911  185.4602 H         0        0    0.0000
@<TRIPOS>BOND
     1     1     2      1
     2     1     6      1
     3     1     8      1
     4     1     9      1
     5     2     3      1
     6     2    10      1
     7     2    11      1
     8     3     4      1
     9     3     5      1
    10     3    12      1
    11     4    13      1
    12     4    14      1
    13     4  1041      H
    14     5     6      1
    15     5    15      1
    16     5    16      1
    17     6     7      1
    18     6    17      1
    19     7    18      1
    20     7    19      1
    21     7    23      1
    22    20    21      1
    23    20    25      1
    24    20    27      1
    25    20    28      1
    26    21    22      1
    27    21    29      1
    28    21    30      1
    29    22    23      1
    30    22    24      1
    31    22    31      1
    32    23    32      1
    33    23    33      1
    34    24    25      1
    35    24    34      1
    36    24    35      1
    37    25    26      1
    38    25    36      1
    39    26    37      1
    40    26    38      1
    41    26    39      1
    42    39    40      1
    43    39    41      1
    44    39    42      1
    45    40    43      1
    46    40    44      1
    47    40    48      1
    48    45    46      1
    49    45    50      1
    50    45    52      1
    51    45    53      1
    52    46    47      1
    53    46    54      1
    54    46    55      1
    55    47    48      1
    56    47    49      1
    57    47    56      1
    58    48    57      1
    59    48    58      1
    60    49    50      1
    61    49    59      1
    62    49    60      1
    63    50    51      1
    64    50    61      1
    65    51    62      1
    66    51    63      1
    67    51    64      1
    68    64    65      1
    69    64    66      1
    70    64    67      1
    71    65    68      1
    72    65    69      1
    73    65    73      1
    74    70    71      1
    75    70    75      1
    76    70    77      1
    77    70    78      1
    78    71    72      1
    79    71    79      1
    80    71    80      1
    81    72    73      1
    82    72    74      1
    83    72    81      1
    84    73    82      1
    85    73    83      1
    86    74    75      1
    87    74    84      1
    88    74    85      1
    89    75    76      1
    90    75    86      1
    91    76    87      1
    92    76    88      1
    93    76    92      1
    94    89    90      1
    95    89    94      1
    96    89    96      1
    97    89    97      1
    98    90    91      1
    99    90    98      1
   100    90    99      1
   101    91    92      1
   102    91    93      1
   103    91   100      1
   104    92   101      1
   105    92   102      1
   106    93    94      1
   107    93   103      1
   108    93   104      1
   109    94    95      1
   110    94   105      1
   111    95   106      1
   112    95   107      1
   113    95   108      1
   114   108   109      1
   115   108   110      1
   116   108   111      1
   117   109   112      1
   118   109   113      1
   119   109   114      1
   120   114   115      1
   121   114   116      1
   122   114   117      1
   123   115   118      1
   124   115   119      1
   125   115   120      1
   126   120   121      1
   127   120   122      1
   128   120   123      1
   129   121   124      1
   130   121   125      1
   131   121   126      1
   132   126   127      1
   133   126   128      1
   134   126   129      1
   135   127   130      1
   136   127   131      1
   137   127   135      1
   138   132   133      1
   139   132   137      1
   140   132   139      1
   141   132   140      1
   142   133   134      1
   143   133   141      1
   144   133   142      1
   145   134   135      1
   146   134   136      1
   147   134   143      1
   148   135   144      1
   149   135   145      1
   150   136   137      1
   151   136   146      1
   152   136   147      1
   153   137   138      1
   154   137   148      1
   155   138   149      1
   156   138   150      1
   157   138   154      1
   158   151   152      1
   159   151   156      1
   160   151   158      1
   161   151   159      1
   162   152   153      1
   163   152   160      1
   164   152   161      1
   165   153   154      1
   166   153   155      1
   167   153   162      1
   168   154   163      1
   169   154   164      1
   170   155   156      1
   171   155   165      1
   172   155   166      1
   173   156   157      1
   174   156   167      1
   175   157   168      1
   176   157   169      1
   177   157   170      1
   178   170   171      1
   179   170   172      1
   180   170   173      1
   181   171   174      1
   182   171   175      1
   183   171   179      1
   184   176   177      1
   185   176   181      1
   186   176   183      1
   187   176   184      1
   188   177   178      1
   189   177   185      1
   190   177   186      1
   191   178   179      1
   192   178   180      1
   193   178   187      1
   194   179   188      1
   195   179   189      1
   196   180   181      1
   197   180   190      1
   198   180   191      1
   199   181   182      1
   200   181   192      1
   201   182   193      1
   202   182   194      1
   203   182   195      1
   204   195   196      1
   205   195   197      1
   206   195   198      1
   207   196   199      1
   208   196   200      1
   209   196   204      1
   210   201   202      1
   211   201   206      1
   212   201   208      1
   213   201   209      1
   214   202   203      1
   215   202   210      1
   216   202   211      1
   217   203   204      1
   218   203   205      1
   219   203   212      1
   220   204   213      1
   221   204   214      1
   222   205   206      1
   223   205   215      1
   224   205   216      1
   225   206   207      1
   226   206   217      1
   227   207   218      1
   228   207   219      1
   229   207   223      1
   230   220   221      1
   231   220   225      1
   232   220   227      1
   233   220   228      1
   234   221   222      1
   235   221   229      1
   236   221   230      1
   237   222   223      1
   238   222   224      1
   239   222   231      1
   240   223   232      1
   241   223   233      1
   242   224   225      1
   243   224   234      1
   244   224   235      1
   245   225   226      1
   246   225   236      1
   247   226   237      1
   248   226   238      1
   249   226   242      1
   250   239   240      1
   251   239   244      1
   252   239   246      1
   253   239   247      1
   254   240   241      1
   255   240   248      1
   256   240   249      1
   257   241   242      1
   258   241   243      1
   259   241   250      1
   260   242   251      1
   261   242   252      1
   262   243   244      1
   263   243   253      1
   264   243   254      1
   265   244   245      1
   266   244   255      1
   267   245   256      1
   268   245   257      1
   269   245   261      1
   270   258   259      1
   271   258   263      1
   272   258   265      1
   273   258   266      1
   274   259   260      1
   275   259   267      1
   276   259   268      1
   277   260   261      1
   278   260   262      1
   279   260   269      1
   280   261   270      1
   281   261   271      1
   282   262   263      1
   283   262   272      1
   284   262   273      1
   285   263   264      1
   286   263   274      1
   287   264   275      1
   288   264   276      1
   289   264   277      1
   290   277   278      1
   291   277   279      1
   292   277   280      1
   293   278   281      1
   294   278   282      1
   295   278   286      1
   296   283   284      1
   297   283   288      1
   298   283   290      1
   299   283   291      1
   300   284   285      1
   301   284   292      1
   302   284   293      1
   303   285   286      1
   304   285   287      1
   305   285   294      1
   306   286   295      1
   307   286   296      1
   308   287   288      1
   309   287   297      1
   310   287   298      1
   311   288   289      1
   312   288   299      1
   313   289   300      1
   314   289   301      1
   315   289   305      1
   316   302   303      1
   317   302   307      1
   318   302   309      1
   319   302   310      1
   320   303   304      1
   321   303   311      1
   322   303   312      1
   323   304   305      1
   324   304   306      1
   325   304   313      1
   326   305   314      1
   327   305   315      1
   328   306   307      1
   329   306   316      1
   330   306   317      1
   331   307   308      1
   332   307   318      1
   333   308   319      1
   334   308   320      1
   335   308   324      1
   336   321   322      1
   337   321   326      1
   338   321   328      1
   339   321   329      1
   340   322   323      1
   341   322   330      1
   342   322   331      1
   343   323   324      1
   344   323   325      1
   345   323   332      1
   346   324   333      1
   347   324   334      1
   348   325   326      1
   349   325   335      1
   350   325   336      1
   351   326   327      1
   352   326   337      1
   353   327   338      1
   354   327   339      1
   355   327   343      1
   356   340   341      1
   357   340   345      1
   358   340   347      1
   359   340   348      1
   360   341   342      1
   361   341   349      1
   362   341   350      1
   363   342   343      1
   364   342   344      1
   365   342   351      1
   366   343   352      1
   367   343   353      1
   368   344   345      1
   369   344   354      1
   370   344   355      1
   371   345   346      1
   372   345   356      1
   373   346   357      1
   374   346   358      1
   375   346   362      1
   376   359   360      1
   377   359   364      1
   378   359   366      1
   379   359   367      1
   380   360   361      1
   381   360   368      1
   382   360   369      1
   383   361   362      1
   384   361   363      1
   385   361   370      1
   386   362   371      1
   387   362   372      1
   388   363   364      1
   389   363   373      1
   390   363   374      1
   391   364   365      1
   392   364   375      1
   393   365   376      1
   394   365   377      1
   395   365   381      1
   396   378   379      1
   397   378   383      1
   398   378   385      1
   399   378   386      1
   400   379   380      1
   401   379   387      1
   402   379   388      1
   403   380   381      1
   404   380   382      1
   405   380   389      1
   406   381   390      1
   407   381   391      1
   408   382   383      1
   409   382   392      1
   410   382   393      1
   411   383   384      1
   412   383   394      1
   413   384   395      1
   414   384   396      1
   415   384   397      1
   416   397   398      1
   417   397   399      1
   418   397   400      1
   419   398   401      1
   420   398   402      1
   421   398   406      1
   422   403   404      1
   423   403   408      1
   424   403   410      1
   425   403   411      1
   426   404   405      1
   427   404   412      1
   428   404   413      1
   429   405   406      1
   430   405   407      1
   431   405   414      1
   432   406   415      1
   433   406   416      1
   434   407   408      1
   435   407   417      1
   436   407   418      1
   437   408   409      1
   438   408   419      1
   439   409   420      1
   440   409   421      1
   441   409   425      1
   442   422   423      1
   443   422   427      1
   444   422   429      1
   445   422   430      1
   446   423   424      1
   447   423   431      1
   448   423   432      1
   449   424   425      1
   450   424   426      1
   451   424   433      1
   452   425   434      1
   453   425   435      1
   454   426   427      1
   455   426   436      1
   456   426   437      1
   457   427   428      1
   458   427   438      1
   459   428   439      1
   460   428   440      1
   461   428   444      1
   462   441   442      1
   463   441   446      1
   464   441   448      1
   465   441   449      1
   466   442   443      1
   467   442   450      1
   468   442   451      1
   469   443   444      1
   470   443   445      1
   471   443   452      1
   472   444   453      1
   473   444   454      1
   474   445   446      1
   475   445   455      1
   476   445   456      1
   477   446   447      1
   478   446   457      1
   479   447   458      1
   480   447   459      1
   481   447   463      1
   482   460   461      1
   483   460   465      1
   484   460   467      1
   485   460   468      1
   486   461   462      1
   487   461   469      1
   488   461   470      1
   489   462   463      1
   490   462   464      1
   491   462   471      1
   492   463   472      1
   493   463   473      1
   494   464   465      1
   495   464   474      1
   496   464   475      1
   497   465   466      1
   498   465   476      1
   499   466   477      1
   500   466   478      1
   501   466   479      1
   502   479   480      1
   503   479   481      1
   504   479   482      1
   505   480   483      1
   506   480   484      1
   507   480   488      1
   508   485   486      1
   509   485   490      1
   510   485   492      1
   511   485   493      1
   512   486   487      1
   513   486   494      1
   514   486   495      1
   515   487   488      1
   516   487   489      1
   517   487   496      1
   518   488   497      1
   519   488   498      1
   520   489   490      1
   521   489   499      1
   522   489   500      1
   523   490   491      1
   524   490   501      1
   525   491   502      1
   526   491   503      1
   527   491   507      1
   528   504   505      1
   529   504   509      1
   530   504   511      1
   531   504   512      1
   532   505   506      1
   533   505   513      1
   534   505   514      1
   535   506   507      1
   536   506   508      1
   537   506   515      1
   538   507   516      1
   539   507   517      1
   540   508   509      1
   541   508   518      1
   542   508   519      1
   543   509   510      1
   544   509   520      1
   545   510   521      1
   546   510   522      1
   547   510   526      1
   548   523   524      1
   549   523   528      1
   550   523   530      1
   551   523   531      1
   552   524   525      1
   553   524   532      1
   554   524   533      1
   555   525   526      1
   556   525   527      1
   557   525   534      1
   558   526   535      1
   559   526   536      1
   560   527   528      1
   561   527   537      1
   562   527   538      1
   563   528   529      1
   564   528   539      1
   565   529   540      1
   566   529   541      1
   567   529   545      1
   568   542   543      1
   569   542   547      1
   570   542   549      1
   571   542   550      1
   572   543   544      1
   573   543   551      1
   574   543   552      1
   575   544   545      1
   576   544   546      1
   577   544   553      1
   578   545   554      1
   579   545   555      1
   580   546   547      1
   581   546   556      1
   582   546   557      1
   583   547   548      1
   584   547   558      1
   585   548   559      1
   586   548   560      1
   587   548   564      1
   588   561   562      1
   589   561   566      1
   590   561   568      1
   591   561   569      1
   592   562   563      1
   593   562   570      1
   594   562   571      1
   595   563   564      1
   596   563   565      1
   597   563   572      1
   598   564   573      1
   599   564   574      1
   600   565   566      1
   601   565   575      1
   602   565   576      1
   603   566   567      1
   604   566   577      1
   605   567   578      1
   606   567   579      1
   607   567   583      1
   608   580   581      1
   609   580   585      1
   610   580   587      1
   611   580   588      1
   612   581   582      1
   613   581   589      1
   614   581   590      1
   615   582   583      1
   616   582   584      1
   617   582   591      1
   618   583   592      1
   619   583   593      1
   620   584   585      1
   621   584   594      1
   622   584   595      1
   623   585   586      1
   624   585   596      1
   625   586   597      1
   626   586   598      1
   627   586   602      1
   628   599   600      1
   629   599   604      1
   630   599   606      1
   631   599   607      1
   632   600   601      1
   633   600   608      1
   634   600   609      1
   635   601   602      1
   636   601   603      1
   637   601   610      1
   638   602   611      1
   639   602   612      1
   640   603   604      1
   641   603   613      1
   642   603   614      1
   643   604   605      1
   644   604   615      1
   645   605   616      1
   646   605   617      1
   647   605   621      1
   648   618   619      1
   649   618   623      1
   650   618   625      1
   651   618   626      1
   652   619   620      1
   653   619   627      1
   654   619   628      1
   655   620   621      1
   656   620   622      1
   657   620   629      1
   658   621   630      1
   659   621   631      1
   660   622   623      1
   661   622   632      1
   662   622   633      1
   663   623   624      1
   664   623   634      1
   665   624   635      1
   666   624   636      1
   667   624   640      1
   668   637   638      1
   669   637   642      1
   670   637   644      1
   671   637   645      1
   672   638   639      1
   673   638   646      1
   674   638   647      1
   675   639   640      1
   676   639   641      1
   677   639   648      1
   678   640   649      1
   679   640   650      1
   680   641   642      1
   681   641   651      1
   682   641   652      1
   683   642   643      1
   684   642   653      1
   685   643   654      1
   686   643   655      1
   687   643   659      1
   688   656   657      1
   689   656   661      1
   690   656   663      1
   691   656   664      1
   692   657   658      1
   693   657   665      1
   694   657   666      1
   695   658   659      1
   696   658   660      1
   697   658   667      1
   698   659   668      1
   699   659   669      1
   700   660   661      1
   701   660   670      1
   702   660   671      1
   703   661   662      1
   704   661   672      1
   705   662   673      1
   706   662   674      1
   707   662   675      1
   708   675   676      1
   709   675   677      1
   710   675   678      1
   711   676   679      1
   712   676   680      1
   713   676   684      1
   714   681   682      1
   715   681   686      1
   716   681   688      1
   717   681   689      1
   718   682   683      1
   719   682   690      1
   720   682   691      1
   721   683   684      1
   722   683   685      1
   723   683   692      1
   724   684   693      1
   725   684   694      1
   726   685   686      1
   727   685   695      1
   728   685   696      1
   729   686   687      1
   730   686   697      1
   731   687   698      1
   732   687   699      1
   733   687   703      1
   734   700   701      1
   735   700   705      1
   736   700   707      1
   737   700   708      1
   738   701   702      1
   739   701   709      1
   740   701   710      1
   741   702   703      1
   742   702   704      1
   743   702   711      1
   744   703   712      1
   745   703   713      1
   746   704   705      1
   747   704   714      1
   748   704   715      1
   749   705   706      1
   750   705   716      1
   751   706   717      1
   752   706   718      1
   753   706   722      1
   754   719   720      1
   755   719   724      1
   756   719   726      1
   757   719   727      1
   758   720   721      1
   759   720   728      1
   760   720   729      1
   761   721   722      1
   762   721   723      1
   763   721   730      1
   764   722   731      1
   765   722   732      1
   766   723   724      1
   767   723   733      1
   768   723   734      1
   769   724   725      1
   770   724   735      1
   771   725   736      1
   772   725   737      1
   773   725   741      1
   774   738   739      1
   775   738   743      1
   776   738   745      1
   777   738   746      1
   778   739   740      1
   779   739   747      1
   780   739   748      1
   781   740   741      1
   782   740   742      1
   783   740   749      1
   784   741   750      1
   785   741   751      1
   786   742   743      1
   787   742   752      1
   788   742   753      1
   789   743   744      1
   790   743   754      1
   791   744   755      1
   792   744   756      1
   793   744   760      1
   794   757   758      1
   795   757   762      1
   796   757   764      1
   797   757   765      1
   798   758   759      1
   799   758   766      1
   800   758   767      1
   801   759   760      1
   802   759   761      1
   803   759   768      1
   804   760   769      1
   805   760   770      1
   806   761   762      1
   807   761   771      1
   808   761   772      1
   809   762   763      1
   810   762   773      1
   811   763   774      1
   812   763   775      1
   813   763   779      1
   814   776   777      1
   815   776   781      1
   816   776   783      1
   817   776   784      1
   818   777   778      1
   819   777   785      1
   820   777   786      1
   821   778   779      1
   822   778   780      1
   823   778   787      1
   824   779   788      1
   825   779   789      1
   826   780   781      1
   827   780   790      1
   828   780   791      1
   829   781   782      1
   830   781   792      1
   831   782   793      1
   832   782   794      1
   833   782   795      1
   834   795   796      1
   835   795   797      1
   836   795   798      1
   837   796   799      1
   838   796   800      1
   839   796   804      1
   840   801   802      1
   841   801   806      1
   842   801   808      1
   843   801   809      1
   844   802   803      1
   845   802   810      1
   846   802   811      1
   847   803   804      1
   848   803   805      1
   849   803   812      1
   850   804   813      1
   851   804   814      1
   852   805   806      1
   853   805   815      1
   854   805   816      1
   855   806   807      1
   856   806   817      1
   857   807   818      1
   858   807   819      1
   859   807   823      1
   860   820   821      1
   861   820   825      1
   862   820   827      1
   863   820   828      1
   864   821   822      1
   865   821   829      1
   866   821   830      1
   867   822   823      1
   868   822   824      1
   869   822   831      1
   870   823   832      1
   871   823   833      1
   872   824   825      1
   873   824   834      1
   874   824   835      1
   875   825   826      1
   876   825   836      1
   877   826   837      1
   878   826   838      1
   879   826   839      1
   880   839   840      1
   881   839   841      1
   882   839   842      1
   883   840   843      1
   884   840   844      1
   885   840   848      1
   886   845   846      1
   887   845   850      1
   888   845   852      1
   889   845   853      1
   890   846   847      1
   891   846   854      1
   892   846   855      1
   893   847   848      1
   894   847   849      1
   895   847   856      1
   896   848   857      1
   897   848   858      1
   898   849   850      1
   899   849   859      1
   900   849   860      1
   901   850   851      1
   902   850   861      1
   903   851   862      1
   904   851   863      1
   905   851   867      1
   906   864   865      1
   907   864   869      1
   908   864   871      1
   909   864   872      1
   910   865   866      1
   911   865   873      1
   912   865   874      1
   913   866   867      1
   914   866   868      1
   915   866   875      1
   916   867   876      1
   917   867   877      1
   918   868   869      1
   919   868   878      1
   920   868   879      1
   921   869   870      1
   922   869   880      1
   923   870   881      1
   924   870   882      1
   925   870   883      1
   926   883   884      1
   927   883   885      1
   928   883   886      1
   929   884   887      1
   930   884   888      1
   931   884   892      1
   932   889   890      1
   933   889   894      1
   934   889   896      1
   935   889   897      1
   936   890   891      1
   937   890   898      1
   938   890   899      1
   939   891   892      1
   940   891   893      1
   941   891   900      1
   942   892   901      1
   943   892   902      1
   944   893   894      1
   945   893   903      1
   946   893   904      1
   947   894   895      1
   948   894   905      1
   949   895   906      1
   950   895   907      1
   951   895   908      1
   952   908   909      1
   953   908   910      1
   954   908   911      1
   955   909   912      1
   956   909   913      1
   957   909   917      1
   958   914   915      1
   959   914   919      1
   960   914   921      1
   961   914   922      1
   962   915   916      1
   963   915   923      1
   964   915   924      1
   965   916   917      1
   966   916   918      1
   967   916   925      1
   968   917   926      1
   969   917   927      1
   970   918   919      1
   971   918   928      1
   972   918   929      1
   973   919   920      1
   974   919   930      1
   975   920   931      1
   976   920   932      1
   977   920   936      1
   978   933   934      1
   979   933   938      1
   980   933   940      1
   981   933   941      1
   982   934   935      1
   983   934   942      1
   984   934   943      1
   985   935   936      1
   986   935   937      1
   987   935   944      1
   988   936   945      1
   989   936   946      1
   990   937   938      1
   991   937   947      1
   992   937   948      1
   993   938   939      1
   994   938   949      1
   995   939   950      1
   996   939   951      1
   997   939   955      1
   998   952   953      1
   999   952   957      1
  1000   952   959      1
  1001   952   960      1
  1002   953   954      1
  1003   953   961      1
  1004   953   962      1
  1005   954   955      1
  1006   954   956      1
  1007   954   963      1
  1008   955   964      1
  1009   955   965      1
  1010   956   957      1
  1011   956   966      1
  1012   956   967      1
  1013   957   958      1
  1014   957   968      1
  1015   958   969      1
  1016   958   970      1
  1017   958   971      1
  1018   971   972      1
  1019   971   973      1
  1020   971   974      1
  1021   972   975      1
  1022   972   976      1
  1023   972   980      1
  1024   977   978      1
  1025   977   982      1
  1026   977   984      1
  1027   977   985      1
  1028   978   979      1
  1029   978   986      1
  1030   978   987      1
  1031   979   980      1
  1032   979   981      1
  1033   979   988      1
  1034   980   989      1
  1035   980   990      1
  1036   981   982      1
  1037   981   991      1
  1038   981   992      1
  1039   982   983      1
  1040   982   993      1
  1041   983   994      1
  1042   983   995      1
  1043   983   999      1
  1044   996   997      1
  1045   996  1001      1
  1046   996  1003      1
  1047   996  1004      1
  1048   997   998      1
  1049   997  1005      1
  1050   997  1006      1
  1051   998   999      1
  1052   998  1000      1
  1053   998  1007      1
  1054   999  1008      1
  1055   999  1009      1
  1056  1000  1001      1
  1057  1000  1010      1
  1058  1000  1011      1
  1059  1001  1002      1
  1060  1001  1012      1
  1061  1002  1013      1
  1062  1002  1014      1
  1063  1002  1015      1
  1064  1015  1016      1
  1065  1015  1017      1
  1066  1015  1018      1
  1067  1016  1019      1
  1068  1016  1020      1
  1069  1016  1024      1
  1070  1021  1022      1
  1071  1021  1026      1
  1072  1021  1028      1
  1073  1021  1029      1
  1074  1022  1023      1
  1075  1022  1030      1
  1076  1022  1031      1
  1077  1023  1024      1
  1078  1023  1025      1
  1079  1023  1032      1
  1080  1024  1033      1
  1081  1024  1034      1
  1082  1025  1026      1
  1083  1025  1035      1
  1084  1025  1036      1
  1085  1026  1027      1
  1086  1026  1037      1
  1087  1027  1038      1
  1088  1027  1039      1
  1089  1027  1040      H
