###
### Created by PolyChef-cpp17 on Wed Feb 26 21:14:14 2025
###

@<TRIPOS>MOLECULE
NO_INFO
1810 1895 1 0 0
SMALL
USER_CHARGES


@<TRIPOS>ATOM
      1 C         120.3883  152.0460   53.9253 C.3       0        0    0.0000
      2 C         119.0531  152.6944   53.5871 C.3       0        0    0.0000
      3 C         119.3499  154.1894   53.7437 C.3       0        0    0.0000
      4 C         118.1201  155.0949   53.8623 C.3       0        0    0.0000
      5 C         120.3587  154.2834   54.9051 C.3       0        0    0.0000
      6 C         120.8566  152.8448   55.1461 C.3       0        0    0.0000
      7 C         122.3431  152.7093   55.4897 C.3       0        0    0.0000
      8 H         120.2803  150.9800   54.1481 H         0        0    0.0000
      9 H         121.0747  152.1486   53.0776 H         0        0    0.0000
     10 H         118.7223  152.4447   52.5742 H         0        0    0.0000
     11 H         118.2863  152.3506   54.2899 H         0        0    0.0000
     12 H         119.8840  154.5054   52.8349 H         0        0    0.0000
     13 H         117.5905  154.8593   54.7931 H         0        0    0.0000
     14 H         118.4493  156.1377   53.9425 H         0        0    0.0000
     15 H         119.9130  154.6755   55.8256 H         0        0    0.0000
     16 H         121.1653  154.9733   54.6344 H         0        0    0.0000
     17 H         120.2991  152.4587   56.0128 H         0        0    0.0000
     18 H         122.7040  151.7348   55.1399 H         0        0    0.0000
     19 H         122.9089  153.4707   54.9398 H         0        0    0.0000
     20 C         126.2722  152.6013   57.8426 C.3       1        0    0.0000
     21 C         125.2128  152.5469   56.7392 C.3       1        0    0.0000
     22 C         123.9146  152.0489   57.3996 C.3       1        0    0.0000
     23 C         122.6644  152.8464   57.0083 C.3       1        0    0.0000
     24 C         124.2015  152.1144   58.9031 C.3       1        0    0.0000
     25 C         125.6988  151.8108   59.0237 C.3       1        0    0.0000
     26 C         126.0004  150.3021   58.9460 C.3       1        0    0.0000
     27 H         127.2422  152.2337   57.4945 H         1        0    0.0000
     28 H         126.4142  153.6469   58.1446 H         1        0    0.0000
     29 H         125.1032  153.5336   56.2758 H         1        0    0.0000
     30 H         125.5195  151.8507   55.9499 H         1        0    0.0000
     31 H         123.7707  150.9941   57.1252 H         1        0    0.0000
     32 H         121.8048  152.4778   57.5805 H         1        0    0.0000
     33 H         122.7884  153.9042   57.2672 H         1        0    0.0000
     34 H         123.5788  151.4149   59.4702 H         1        0    0.0000
     35 H         124.0008  153.1231   59.2867 H         1        0    0.0000
     36 H         126.0802  152.2112   59.9716 H         1        0    0.0000
     37 H         126.2163  149.9942   57.9170 H         1        0    0.0000
     38 H         125.1178  149.7374   59.2690 H         1        0    0.0000
     39 C         127.1926  149.9035   59.8635 C.3       2        0    0.0000
     40 C         126.9874  148.5793   60.6129 C.3       2        0    0.0000
     41 H         128.0700  149.7944   59.2133 H         2        0    0.0000
     42 H         127.4159  150.7234   60.5562 H         2        0    0.0000
     43 H         125.9222  148.3596   60.7505 H         2        0    0.0000
     44 H         127.3971  147.7708   59.9940 H         2        0    0.0000
     45 C         125.5595  150.1150   64.5460 C.3       3        0    0.0000
     46 C         125.8253  149.8974   63.0544 C.3       3        0    0.0000
     47 C         127.3421  149.6835   62.9042 C.3       3        0    0.0000
     48 C         127.7242  148.5088   61.9953 C.3       3        0    0.0000
     49 C         127.8457  149.4986   64.3393 C.3       3        0    0.0000
     50 C         126.9252  150.3823   65.1880 C.3       3        0    0.0000
     51 C         127.3338  151.8670   65.1460 C.3       3        0    0.0000
     52 H         124.8277  150.9101   64.7177 H         3        0    0.0000
     53 H         125.1380  149.1935   64.9678 H         3        0    0.0000
     54 H         125.2374  149.0483   62.6889 H         3        0    0.0000
     55 H         125.5149  150.7776   62.4793 H         3        0    0.0000
     56 H         127.7829  150.6078   62.5043 H         3        0    0.0000
     57 H         128.8056  148.5262   61.8145 H         3        0    0.0000
     58 H         127.4997  147.5553   62.4871 H         3        0    0.0000
     59 H         128.9028  149.7651   64.4405 H         3        0    0.0000
     60 H         127.7365  148.4516   64.6505 H         3        0    0.0000
     61 H         126.9334  150.0305   66.2275 H         3        0    0.0000
     62 H         126.7995  152.4022   64.3533 H         3        0    0.0000
     63 H         128.4034  151.9438   64.9172 H         3        0    0.0000
     64 C         127.0780  152.5751   66.5080 C.3       4        0    0.0000
     65 C         125.7128  153.2714   66.6025 C.3       4        0    0.0000
     66 H         127.1180  151.7977   67.2817 H         4        0    0.0000
     67 H         127.8969  153.2721   66.7215 H         4        0    0.0000
     68 H         125.7824  154.2115   67.1622 H         4        0    0.0000
     69 H         125.3937  153.5344   65.5858 H         4        0    0.0000
     70 C         123.1255  150.4345   69.4268 C.3       5        0    0.0000
     71 C         123.6872  151.8550   69.5322 C.3       5        0    0.0000
     72 C         124.9307  151.9006   68.6375 C.3       5        0    0.0000
     73 C         124.5813  152.3747   67.2142 C.3       5        0    0.0000
     74 C         125.4383  150.4553   68.7190 C.3       5        0    0.0000
     75 C         124.1681  149.6028   68.6614 C.3       5        0    0.0000
     76 C         124.3874  148.1915   69.2179 C.3       5        0    0.0000
     77 H         122.9291  150.0390   70.4298 H         5        0    0.0000
     78 H         122.1721  150.4362   68.8863 H         5        0    0.0000
     79 H         123.9825  152.0420   70.5725 H         5        0    0.0000
     80 H         122.9394  152.6107   69.2710 H         5        0    0.0000
     81 H         125.6737  152.5842   69.0681 H         5        0    0.0000
     82 H         123.6564  152.9632   67.2474 H         5        0    0.0000
     83 H         124.3879  151.5263   66.5492 H         5        0    0.0000
     84 H         125.9542  150.3049   69.6764 H         5        0    0.0000
     85 H         126.1418  150.1928   67.9233 H         5        0    0.0000
     86 H         123.8485  149.5276   67.6125 H         5        0    0.0000
     87 H         123.5761  147.5261   68.9004 H         5        0    0.0000
     88 H         124.3616  148.2241   70.3135 H         5        0    0.0000
     89 C         128.3676  150.3129   68.6229 C.3       6        0    0.0000
     90 C         127.7826  148.9917   68.1171 C.3       6        0    0.0000
     91 C         126.9409  148.4248   69.2679 C.3       6        0    0.0000
     92 C         125.7532  147.5979   68.7679 C.3       6        0    0.0000
     93 C         126.5574  149.6746   70.0673 C.3       6        0    0.0000
     94 C         127.8551  150.4893   70.0583 C.3       6        0    0.0000
     95 C         127.6860  151.9628   70.4390 C.3       6        0    0.0000
     96 H         129.4625  150.3024   68.5954 H         6        0    0.0000
     97 H         128.0342  151.1318   67.9743 H         6        0    0.0000
     98 H         128.5717  148.2904   67.8252 H         6        0    0.0000
     99 H         127.1703  149.1805   67.2272 H         6        0    0.0000
    100 H         127.5927  147.7959   69.8917 H         6        0    0.0000
    101 H         125.8344  146.5758   69.1569 H         6        0    0.0000
    102 H         125.7758  147.5225   67.6744 H         6        0    0.0000
    103 H         126.2369  149.4272   71.0843 H         6        0    0.0000
    104 H         125.7456  150.2231   69.5733 H         6        0    0.0000
    105 H         128.5739  150.0116   70.7399 H         6        0    0.0000
    106 H         127.3009  152.5341   69.5862 H         6        0    0.0000
    107 H         128.6661  152.3873   70.6871 H         6        0    0.0000
    108 C         126.7421  152.1537   71.6578 C.3       7        0    0.0000
    109 C         127.4461  152.6842   72.9150 C.3       7        0    0.0000
    110 H         125.9822  152.8868   71.3582 H         7        0    0.0000
    111 H         126.2103  151.2173   71.8635 H         7        0    0.0000
    112 H         128.5339  152.7118   72.7813 H         7        0    0.0000
    113 H         127.1231  153.7210   73.0741 H         7        0    0.0000
    114 C         127.0943  151.8947   74.2232 C.3       8        0    0.0000
    115 C         128.0780  152.1310   75.3781 C.3       8        0    0.0000
    116 H         127.1208  150.8279   73.9663 H         8        0    0.0000
    117 H         126.0643  152.1190   74.5244 H         8        0    0.0000
    118 H         129.0941  151.9591   75.0004 H         8        0    0.0000
    119 H         128.0441  153.1705   75.7246 H         8        0    0.0000
    120 C         127.8773  151.1618   76.5943 C.3       9        0    0.0000
    121 C         128.4352  151.7002   77.9196 C.3       9        0    0.0000
    122 H         126.7952  151.0215   76.7124 H         9        0    0.0000
    123 H         128.2968  150.1775   76.3555 H         9        0    0.0000
    124 H         129.5312  151.7264   77.9098 H         9        0    0.0000
    125 H         128.0975  152.7382   78.0345 H         9        0    0.0000
    126 C         127.9366  150.9194   79.1848 C.3      10        0    0.0000
    127 C         127.6359  151.8172   80.3935 C.3      10        0    0.0000
    128 H         128.7401  150.2269   79.4666 H        10        0    0.0000
    129 H         127.0696  150.3027   78.9204 H        10        0    0.0000
    130 H         128.5045  151.7879   81.0638 H        10        0    0.0000
    131 H         127.5083  152.8633   80.0915 H        10        0    0.0000
    132 C         126.8881  153.5311   84.3148 C.3      11        0    0.0000
    133 C         127.2577  153.1588   82.8858 C.3      11        0    0.0000
    134 C         126.1211  152.2179   82.4729 C.3      11        0    0.0000
    135 C         126.3973  151.3560   81.2372 C.3      11        0    0.0000
    136 C         125.7495  151.4443   83.7531 C.3      11        0    0.0000
    137 C         126.4379  152.1933   84.9109 C.3      11        0    0.0000
    138 C         125.6291  152.2904   86.2080 C.3      11        0    0.0000
    139 H         127.7363  153.9588   84.8583 H        11        0    0.0000
    140 H         126.0806  154.2714   84.3073 H        11        0    0.0000
    141 H         127.3197  154.0382   82.2373 H        11        0    0.0000
    142 H         128.2321  152.6581   82.8741 H        11        0    0.0000
    143 H         125.2565  152.8519   82.2247 H        11        0    0.0000
    144 H         126.5529  150.3174   81.5526 H        11        0    0.0000
    145 H         125.5107  151.3598   80.5921 H        11        0    0.0000
    146 H         126.0910  150.4037   83.7359 H        11        0    0.0000
    147 H         124.6596  151.4100   83.8566 H        11        0    0.0000
    148 H         127.3510  151.6289   85.1536 H        11        0    0.0000
    149 H         124.6240  152.6622   85.9762 H        11        0    0.0000
    150 H         125.5041  151.2855   86.6286 H        11        0    0.0000
    151 C         129.6969  154.3992   86.2713 C.3      12        0    0.0000
    152 C         128.3462  153.7636   85.9318 C.3      12        0    0.0000
    153 C         127.7960  153.1936   87.2458 C.3      12        0    0.0000
    154 C         126.2656  153.2110   87.2922 C.3      12        0    0.0000
    155 C         128.4771  154.0575   88.3124 C.3      12        0    0.0000
    156 C         129.9067  154.1866   87.7763 C.3      12        0    0.0000
    157 C         130.7282  155.3105   88.4139 C.3      12        0    0.0000
    158 H         130.5093  153.9453   85.6935 H        12        0    0.0000
    159 H         129.6731  155.4654   86.0161 H        12        0    0.0000
    160 H         128.4523  152.9775   85.1765 H        12        0    0.0000
    161 H         127.6782  154.5268   85.5147 H        12        0    0.0000
    162 H         128.1572  152.1599   87.3485 H        12        0    0.0000
    163 H         125.9103  154.2359   87.1317 H        12        0    0.0000
    164 H         125.9118  152.9055   88.2838 H        12        0    0.0000
    165 H         128.4515  153.5846   89.2993 H        12        0    0.0000
    166 H         127.9956  155.0405   88.3880 H        12        0    0.0000
    167 H         130.4225  153.2256   87.9179 H        12        0    0.0000
    168 H         130.9160  156.1059   87.6832 H        12        0    0.0000
    169 H         131.7077  154.9181   88.7127 H        12        0    0.0000
    170 C         130.0342  155.9123   89.6665 C.3      13        0    0.0000
    171 C         130.5233  157.3204   90.0346 C.3      13        0    0.0000
    172 H         128.9628  155.9734   89.4364 H        13        0    0.0000
    173 H         130.1342  155.2216   90.5119 H        13        0    0.0000
    174 H         131.0530  157.7902   89.1975 H        13        0    0.0000
    175 H         129.6434  157.9439   90.2387 H        13        0    0.0000
    176 C         129.5829  157.7448   94.4758 C.3      14        0    0.0000
    177 C         129.4755  157.5422   92.9652 C.3      14        0    0.0000
    178 C         130.7210  156.7469   92.5372 C.3      14        0    0.0000
    179 C         131.4196  157.3676   91.3203 C.3      14        0    0.0000
    180 C         131.5973  156.6844   93.7978 C.3      14        0    0.0000
    181 C         130.6067  156.7188   94.9685 C.3      14        0    0.0000
    182 C         129.9500  155.3614   95.2790 C.3      14        0    0.0000
    183 H         129.9618  158.7560   94.6721 H        14        0    0.0000
    184 H         128.6111  157.6618   94.9724 H        14        0    0.0000
    185 H         129.3902  158.5081   92.4554 H        14        0    0.0000
    186 H         128.5725  156.9695   92.7231 H        14        0    0.0000
    187 H         130.3989  155.7271   92.2834 H        14        0    0.0000
    188 H         132.3706  156.8582   91.1261 H        14        0    0.0000
    189 H         131.6602  158.4155   91.5364 H        14        0    0.0000
    190 H         132.2419  155.8001   93.8061 H        14        0    0.0000
    191 H         132.2487  157.5664   93.8529 H        14        0    0.0000
    192 H         131.1022  157.0958   95.8723 H        14        0    0.0000
    193 H         130.5727  154.5299   94.9318 H        14        0    0.0000
    194 H         128.9993  155.2881   94.7371 H        14        0    0.0000
    195 C         129.6530  155.1897   96.7957 C.3      15        0    0.0000
    196 C         128.2987  155.7643   97.2351 C.3      15        0    0.0000
    197 H         129.6466  154.1108   96.9971 H        15        0    0.0000
    198 H         130.4758  155.6133   97.3835 H        15        0    0.0000
    199 H         127.4933  155.4460   96.5630 H        15        0    0.0000
    200 H         128.0608  155.3556   98.2256 H        15        0    0.0000
    201 C         129.7663  159.8320   99.6100 C.3      16        0    0.0000
    202 C         129.0433  158.4892   99.5163 C.3      16        0    0.0000
    203 C         129.4770  157.8466   98.1874 C.3      16        0    0.0000
    204 C         128.2843  157.3260   97.3746 C.3      16        0    0.0000
    205 C         130.2930  158.9358   97.4743 C.3      16        0    0.0000
    206 C         130.9185  159.7631   98.6045 C.3      16        0    0.0000
    207 C         132.1794  159.1330   99.2240 C.3      16        0    0.0000
    208 H         129.0737  160.6294   99.3115 H        16        0    0.0000
    209 H         130.0931  160.0531  100.6309 H        16        0    0.0000
    210 H         127.9595  158.6332   99.5867 H        16        0    0.0000
    211 H         129.3369  157.8418  100.3509 H        16        0    0.0000
    212 H         130.1447  157.0056   98.4219 H        16        0    0.0000
    213 H         128.2722  157.7853   96.3793 H        16        0    0.0000
    214 H         127.3518  157.6209   97.8706 H        16        0    0.0000
    215 H         131.0351  158.5114   96.7910 H        16        0    0.0000
    216 H         129.6313  159.5806   96.8814 H        16        0    0.0000
    217 H         131.1575  160.7727   98.2466 H        16        0    0.0000
    218 H         131.9206  158.4281  100.0214 H        16        0    0.0000
    219 H         132.7862  159.9206   99.6869 H        16        0    0.0000
    220 C         135.9358  160.8428   98.3482 C.3      17        0    0.0000
    221 C         134.4521  160.5115   98.5290 C.3      17        0    0.0000
    222 C         134.1622  159.3183   97.6090 C.3      17        0    0.0000
    223 C         133.0560  158.4141   98.1598 C.3      17        0    0.0000
    224 C         135.5307  158.6426   97.4732 C.3      17        0    0.0000
    225 C         136.4805  159.8361   97.3265 C.3      17        0    0.0000
    226 C         137.9576  159.5088   97.5624 C.3      17        0    0.0000
    227 H         136.0765  161.8716   97.9994 H        17        0    0.0000
    228 H         136.4499  160.7537   99.3127 H        17        0    0.0000
    229 H         133.8171  161.3670   98.2746 H        17        0    0.0000
    230 H         134.2587  160.2644   99.5797 H        17        0    0.0000
    231 H         133.8646  159.7088   96.6249 H        17        0    0.0000
    232 H         133.5088  157.5285   98.6215 H        17        0    0.0000
    233 H         132.4179  158.0540   97.3443 H        17        0    0.0000
    234 H         135.5737  157.9767   96.6055 H        17        0    0.0000
    235 H         135.7707  158.0574   98.3698 H        17        0    0.0000
    236 H         136.3528  160.2646   96.3217 H        17        0    0.0000
    237 H         138.4712  160.3688   98.0078 H        17        0    0.0000
    238 H         138.4437  159.3146   96.5988 H        17        0    0.0000
    239 C         136.7312  155.1845   96.9632 C.3      18        0    0.0000
    240 C         136.8943  156.7020   96.8470 C.3      18        0    0.0000
    241 C         137.0215  157.2422   98.2827 C.3      18        0    0.0000
    242 C         138.1492  158.2643   98.4720 C.3      18        0    0.0000
    243 C         137.2169  155.9914   99.1455 C.3      18        0    0.0000
    244 C         136.4073  154.9018   98.4342 C.3      18        0    0.0000
    245 C         134.9020  154.9877   98.7501 C.3      18        0    0.0000
    246 H         135.9819  154.8006   96.2644 H        18        0    0.0000
    247 H         137.6851  154.7061   96.7066 H        18        0    0.0000
    248 H         137.7641  156.9389   96.2245 H        18        0    0.0000
    249 H         136.0173  157.1437   96.3596 H        18        0    0.0000
    250 H         136.0642  157.7043   98.5634 H        18        0    0.0000
    251 H         138.1666  158.5963   99.5169 H        18        0    0.0000
    252 H         139.1224  157.8027   98.2691 H        18        0    0.0000
    253 H         136.8961  156.1525  100.1799 H        18        0    0.0000
    254 H         138.2761  155.7043   99.1678 H        18        0    0.0000
    255 H         136.7857  153.9135   98.7249 H        18        0    0.0000
    256 H         134.3010  154.9089   97.8374 H        18        0    0.0000
    257 H         134.6787  155.9646   99.1952 H        18        0    0.0000
    258 C         135.9762  153.1107  103.0521 C.3      19        0    0.0000
    259 C         134.7088  153.0826  102.1942 C.3      19        0    0.0000
    260 C         134.8251  154.2507  101.1987 C.3      19        0    0.0000
    261 C         134.4589  153.8851   99.7550 C.3      19        0    0.0000
    262 C         136.2769  154.7220  101.3309 C.3      19        0    0.0000
    263 C         136.6309  154.4734  102.8010 C.3      19        0    0.0000
    264 C         136.0979  155.5813  103.7292 C.3      19        0    0.0000
    265 H         135.7591  152.9125  104.1060 H        19        0    0.0000
    266 H         136.6528  152.3177  102.7085 H        19        0    0.0000
    267 H         134.6126  152.1098  101.6995 H        19        0    0.0000
    268 H         133.8201  153.2159  102.8221 H        19        0    0.0000
    269 H         134.1698  155.0637  101.5428 H        19        0    0.0000
    270 H         134.9540  152.9457   99.4816 H        19        0    0.0000
    271 H         133.3801  153.7134   99.6654 H        19        0    0.0000
    272 H         136.3965  155.7696  101.0360 H        19        0    0.0000
    273 H         136.9338  154.1201  100.6896 H        19        0    0.0000
    274 H         137.7204  154.3988  102.9096 H        19        0    0.0000
    275 H         135.0024  155.5983  103.7367 H        19        0    0.0000
    276 H         136.4291  156.5582  103.3572 H        19        0    0.0000
    277 C         136.6201  155.4154  105.1857 C.3      20        0    0.0000
    278 C         136.1195  154.1447  105.8871 C.3      20        0    0.0000
    279 H         137.7148  155.3624  105.1257 H        20        0    0.0000
    280 H         136.3814  156.3130  105.7683 H        20        0    0.0000
    281 H         135.0366  154.0229  105.7667 H        20        0    0.0000
    282 H         136.5884  153.2799  105.4003 H        20        0    0.0000
    283 C         139.9777  155.0959  107.9361 C.3      21        0    0.0000
    284 C         138.8034  155.0579  106.9593 C.3      21        0    0.0000
    285 C         137.5218  155.1335  107.8072 C.3      21        0    0.0000
    286 C         136.4943  154.0664  107.4076 C.3      21        0    0.0000
    287 C         138.0074  155.0220  109.2606 C.3      21        0    0.0000
    288 C         139.4143  155.6333  109.2541 C.3      21        0    0.0000
    289 C         139.4335  157.1722  109.2976 C.3      21        0    0.0000
    290 H         140.3442  154.0729  108.0903 H        21        0    0.0000
    291 H         140.8156  155.6845  107.5496 H        21        0    0.0000
    292 H         138.8517  154.1563  106.3388 H        21        0    0.0000
    293 H         138.8468  155.9182  106.2810 H        21        0    0.0000
    294 H         137.0793  156.1290  107.6610 H        21        0    0.0000
    295 H         135.5880  154.1634  108.0165 H        21        0    0.0000
    296 H         136.9077  153.0714  107.6117 H        21        0    0.0000
    297 H         137.3268  155.5175  109.9598 H        21        0    0.0000
    298 H         138.0755  153.9678  109.5596 H        21        0    0.0000
    299 H         140.0011  155.2406  110.0943 H        21        0    0.0000
    300 H         138.6761  157.5980  108.6307 H        21        0    0.0000
    301 H         140.4053  157.5312  108.9375 H        21        0    0.0000
    302 C         136.3561  156.5746  112.7244 C.3      22        0    0.0000
    303 C         137.0708  156.5031  111.3758 C.3      22        0    0.0000
    304 C         138.5719  156.6809  111.6622 C.3      22        0    0.0000
    305 C         139.2231  157.7183  110.7382 C.3      22        0    0.0000
    306 C         138.6456  157.0382  113.1548 C.3      22        0    0.0000
    307 C         137.4335  156.3423  113.7869 C.3      22        0    0.0000
    308 C         137.6429  154.8434  114.0689 C.3      22        0    0.0000
    309 H         135.9356  157.5806  112.8502 H        22        0    0.0000
    310 H         135.5240  155.8663  112.7872 H        22        0    0.0000
    311 H         136.6741  157.2621  110.6926 H        22        0    0.0000
    312 H         136.8990  155.5269  110.9072 H        22        0    0.0000
    313 H         139.0615  155.7086  111.5101 H        22        0    0.0000
    314 H         140.1834  158.0475  111.1519 H        22        0    0.0000
    315 H         138.5818  158.6062  110.6818 H        22        0    0.0000
    316 H         139.5969  156.7352  113.6028 H        22        0    0.0000
    317 H         138.5485  158.1231  113.2919 H        22        0    0.0000
    318 H         137.1495  156.8492  114.7180 H        22        0    0.0000
    319 H         137.5587  154.2508  113.1516 H        22        0    0.0000
    320 H         136.8541  154.4895  114.7438 H        22        0    0.0000
    321 C         139.3497  156.9545  117.5618 C.3      23        0    0.0000
    322 C         138.6067  156.6018  116.2709 C.3      23        0    0.0000
    323 C         139.6007  155.8246  115.3894 C.3      23        0    0.0000
    324 C         139.0150  154.5624  114.7444 C.3      23        0    0.0000
    325 C         140.7750  155.5118  116.3223 C.3      23        0    0.0000
    326 C         140.8355  156.7066  117.2801 C.3      23        0    0.0000
    327 C         141.5449  157.9237  116.6569 C.3      23        0    0.0000
    328 H         139.1272  157.9728  117.8946 H        23        0    0.0000
    329 H         139.0164  156.2761  118.3577 H        23        0    0.0000
    330 H         137.7038  156.0265  116.5033 H        23        0    0.0000
    331 H         138.2856  157.5138  115.7542 H        23        0    0.0000
    332 H         139.9622  156.4991  114.6000 H        23        0    0.0000
    333 H         139.7085  154.1892  113.9814 H        23        0    0.0000
    334 H         138.9053  153.7668  115.4904 H        23        0    0.0000
    335 H         141.7085  155.3616  115.7703 H        23        0    0.0000
    336 H         140.5760  154.5954  116.8928 H        23        0    0.0000
    337 H         141.3547  156.4135  118.2015 H        23        0    0.0000
    338 H         141.0711  158.2179  115.7139 H        23        0    0.0000
    339 H         142.5831  157.6595  116.4230 H        23        0    0.0000
    340 C         139.3979  159.2801  120.7475 C.3      24        0    0.0000
    341 C         139.5353  159.2980  119.2315 C.3      24        0    0.0000
    342 C         140.9839  158.8486  119.0143 C.3      24        0    0.0000
    343 C         141.5619  159.1411  117.6263 C.3      24        0    0.0000
    344 C         141.7733  159.4366  120.2002 C.3      24        0    0.0000
    345 C         140.7150  159.9063  121.2174 C.3      24        0    0.0000
    346 C         141.0653  159.6731  122.6902 C.3      24        0    0.0000
    347 H         138.5275  159.8506  121.0859 H        24        0    0.0000
    348 H         139.2848  158.2478  121.0965 H        24        0    0.0000
    349 H         138.8194  158.6261  118.7481 H        24        0    0.0000
    350 H         139.3575  160.3118  118.8559 H        24        0    0.0000
    351 H         141.0000  157.7549  119.1353 H        24        0    0.0000
    352 H         140.9979  159.9630  117.1695 H        24        0    0.0000
    353 H         142.5955  159.4905  117.7348 H        24        0    0.0000
    354 H         142.4058  160.2834  119.9126 H        24        0    0.0000
    355 H         142.4454  158.6733  120.6070 H        24        0    0.0000
    356 H         140.6144  160.9946  121.0888 H        24        0    0.0000
    357 H         140.4817  160.3635  123.3106 H        24        0    0.0000
    358 H         140.7603  158.6591  122.9749 H        24        0    0.0000
    359 C         143.3805  162.2208  120.1993 C.3      25        0    0.0000
    360 C         142.4231  161.3053  120.9469 C.3      25        0    0.0000
    361 C         143.3487  160.5461  121.8997 C.3      25        0    0.0000
    362 C         142.5762  159.8540  123.0255 C.3      25        0    0.0000
    363 C         144.3492  161.6179  122.3696 C.3      25        0    0.0000
    364 C         144.3238  162.7271  121.2979 C.3      25        0    0.0000
    365 C         145.6982  163.2049  120.8123 C.3      25        0    0.0000
    366 H         142.8554  163.0417  119.7009 H        25        0    0.0000
    367 H         143.9108  161.6473  119.4314 H        25        0    0.0000
    368 H         141.6851  161.8984  121.5006 H        25        0    0.0000
    369 H         141.8854  160.6343  120.2700 H        25        0    0.0000
    370 H         143.9004  159.7938  121.3173 H        25        0    0.0000
    371 H         143.0183  158.8740  123.2406 H        25        0    0.0000
    372 H         142.6645  160.4473  123.9434 H        25        0    0.0000
    373 H         144.0481  162.0463  123.3337 H        25        0    0.0000
    374 H         145.3435  161.1821  122.5133 H        25        0    0.0000
    375 H         143.8387  163.5994  121.7608 H        25        0    0.0000
    376 H         145.5642  163.8490  119.9352 H        25        0    0.0000
    377 H         146.2791  162.3368  120.4786 H        25        0    0.0000
    378 C         146.4126  162.7069  125.3668 C.3      26        0    0.0000
    379 C         145.9721  162.4905  123.9170 C.3      26        0    0.0000
    380 C         145.8831  163.8849  123.2712 C.3      26        0    0.0000
    381 C         146.5248  163.9759  121.8812 C.3      26        0    0.0000
    382 C         146.5522  164.8187  124.2850 C.3      26        0    0.0000
    383 C         146.2283  164.2018  125.6499 C.3      26        0    0.0000
    384 C         144.8091  164.5562  126.1329 C.3      26        0    0.0000
    385 H         145.8697  162.0563  126.0590 H        26        0    0.0000
    386 H         147.4767  162.4528  125.4543 H        26        0    0.0000
    387 H         146.6795  161.8288  123.4052 H        26        0    0.0000
    388 H         144.9910  162.0025  123.8852 H        26        0    0.0000
    389 H         144.8223  164.1642  123.1983 H        26        0    0.0000
    390 H         146.5891  165.0280  121.5791 H        26        0    0.0000
    391 H         147.5503  163.5896  121.9069 H        26        0    0.0000
    392 H         146.1970  165.8499  124.1893 H        26        0    0.0000
    393 H         147.6398  164.8276  124.1363 H        26        0    0.0000
    394 H         146.9622  164.5428  126.3912 H        26        0    0.0000
    395 H         144.3186  163.6894  126.5897 H        26        0    0.0000
    396 H         144.1959  164.8532  125.2738 H        26        0    0.0000
    397 C         144.8223  165.7349  127.1490 C.3      27        0    0.0000
    398 C         144.2309  165.3822  128.5213 C.3      27        0    0.0000
    399 H         145.8731  166.0170  127.2933 H        27        0    0.0000
    400 H         144.3214  166.6060  126.7107 H        27        0    0.0000
    401 H         143.6669  166.2236  128.9407 H        27        0    0.0000
    402 H         143.5146  164.5622  128.3828 H        27        0    0.0000
    403 C         148.5631  164.1305  127.8084 C.3      28        0    0.0000
    404 C         147.1934  164.7918  127.8054 C.3      28        0    0.0000
    405 C         146.4555  164.0930  128.9544 C.3      28        0    0.0000
    406 C         145.2917  164.8853  129.5635 C.3      28        0    0.0000
    407 C         147.5508  163.6558  129.9488 C.3      28        0    0.0000
    408 C         148.8942  164.0347  129.2991 C.3      28        0    0.0000
    409 C         150.0374  163.0547  129.5746 C.3      28        0    0.0000
    410 H         148.5053  163.1352  127.3509 H        28        0    0.0000
    411 H         149.3031  164.7186  127.2570 H        28        0    0.0000
    412 H         147.3058  165.8673  127.9801 H        28        0    0.0000
    413 H         146.6782  164.6602  126.8487 H        28        0    0.0000
    414 H         146.0197  163.1706  128.5423 H        28        0    0.0000
    415 H         144.7857  164.2587  130.3077 H        28        0    0.0000
    416 H         145.6919  165.7520  130.1028 H        28        0    0.0000
    417 H         147.4777  162.5725  130.1065 H        28        0    0.0000
    418 H         147.4507  164.1266  130.9324 H        28        0    0.0000
    419 H         149.1765  165.0365  129.6541 H        28        0    0.0000
    420 H         149.7318  162.0343  129.3149 H        28        0    0.0000
    421 H         150.8894  163.3016  128.9299 H        28        0    0.0000
    422 C         153.5374  161.5977  132.7999 C.3      29        0    0.0000
    423 C         152.0400  161.8674  132.7502 C.3      29        0    0.0000
    424 C         151.8286  162.3575  131.3139 C.3      29        0    0.0000
    425 C         150.5069  163.0874  131.0562 C.3      29        0    0.0000
    426 C         153.1039  163.1487  130.9633 C.3      29        0    0.0000
    427 C         154.1268  162.8055  132.0639 C.3      29        0    0.0000
    428 C         155.5753  162.6453  131.5925 C.3      29        0    0.0000
    429 H         153.9054  161.5229  133.8279 H        29        0    0.0000
    430 H         153.7607  160.6546  132.2891 H        29        0    0.0000
    431 H         151.4552  160.9684  132.9682 H        29        0    0.0000
    432 H         151.7770  162.6320  133.4895 H        29        0    0.0000
    433 H         151.8234  161.4651  130.6700 H        29        0    0.0000
    434 H         149.7246  162.6436  131.6833 H        29        0    0.0000
    435 H         150.6075  164.1328  131.3708 H        29        0    0.0000
    436 H         152.9404  164.2315  130.9404 H        29        0    0.0000
    437 H         153.4458  162.8668  129.9616 H        29        0    0.0000
    438 H         154.1205  163.6460  132.7743 H        29        0    0.0000
    439 H         155.7432  161.6022  131.2995 H        29        0    0.0000
    440 H         155.7290  163.2538  130.6934 H        29        0    0.0000
    441 C         156.4829  161.6824  136.1704 C.3      30        0    0.0000
    442 C         156.7271  161.5119  134.6788 C.3      30        0    0.0000
    443 C         156.1617  162.8055  134.0889 C.3      30        0    0.0000
    444 C         156.6425  163.0446  132.6555 C.3      30        0    0.0000
    445 C         156.5882  163.8858  135.0998 C.3      30        0    0.0000
    446 C         156.8522  163.1486  136.4288 C.3      30        0    0.0000
    447 C         156.2066  163.7778  137.6700 C.3      30        0    0.0000
    448 H         157.0934  160.9960  136.7654 H        30        0    0.0000
    449 H         155.4310  161.4755  136.3951 H        30        0    0.0000
    450 H         157.8016  161.4216  134.4778 H        30        0    0.0000
    451 H         156.2282  160.6229  134.2809 H        30        0    0.0000
    452 H         155.0641  162.7385  134.1010 H        30        0    0.0000
    453 H         156.9126  164.0984  132.5180 H        30        0    0.0000
    454 H         157.5532  162.4606  132.4766 H        30        0    0.0000
    455 H         157.5106  164.3864  134.7800 H        30        0    0.0000
    456 H         155.8196  164.6613  135.1840 H        30        0    0.0000
    457 H         157.9393  163.1815  136.5951 H        30        0    0.0000
    458 H         155.1975  163.3677  137.7957 H        30        0    0.0000
    459 H         156.0891  164.8551  137.5024 H        30        0    0.0000
    460 C         158.6952  160.3740  137.8376 C.3      31        0    0.0000
    461 C         157.4337  161.2097  137.9916 C.3      31        0    0.0000
    462 C         157.8309  162.2713  139.0252 C.3      31        0    0.0000
    463 C         157.0048  163.5632  138.9880 C.3      31        0    0.0000
    464 C         159.3546  162.4553  138.8696 C.3      31        0    0.0000
    465 C         159.8039  161.4281  137.8143 C.3      31        0    0.0000
    466 C         161.1857  160.8181  138.0624 C.3      31        0    0.0000
    467 H         158.8097  159.6979  138.6937 H        31        0    0.0000
    468 H         158.6782  159.7710  136.9246 H        31        0    0.0000
    469 H         157.1678  161.6526  137.0257 H        31        0    0.0000
    470 H         156.5839  160.6082  138.3293 H        31        0    0.0000
    471 H         157.6684  161.8284  140.0191 H        31        0    0.0000
    472 H         156.3001  163.5591  139.8282 H        31        0    0.0000
    473 H         157.6719  164.4196  139.1420 H        31        0    0.0000
    474 H         159.8372  162.2675  139.8368 H        31        0    0.0000
    475 H         159.6361  163.4692  138.5666 H        31        0    0.0000
    476 H         159.7914  161.9193  136.8304 H        31        0    0.0000
    477 H         161.3156  159.9155  137.4535 H        31        0    0.0000
    478 H         161.9578  161.5275  137.7419 H        31        0    0.0000
    479 C         161.4220  160.4652  139.5578 C.3      32        0    0.0000
    480 C         162.1942  161.5389  140.3377 C.3      32        0    0.0000
    481 H         160.4315  160.3564  140.0180 H        32        0    0.0000
    482 H         161.9119  159.4873  139.6337 H        32        0    0.0000
    483 H         163.1576  161.7607  139.8637 H        32        0    0.0000
    484 H         161.6094  162.4672  140.3090 H        32        0    0.0000
    485 C         159.7246  159.0741  143.1702 C.3      33        0    0.0000
    486 C         160.3646  159.6750  141.9196 C.3      33        0    0.0000
    487 C         161.8694  159.8044  142.2131 C.3      33        0    0.0000
    488 C         162.4172  161.1909  141.8502 C.3      33        0    0.0000
    489 C         162.0100  159.4452  143.7004 C.3      33        0    0.0000
    490 C         160.8701  158.4567  143.9766 C.3      33        0    0.0000
    491 C         161.1663  157.0124  143.5331 C.3      33        0    0.0000
    492 H         159.2645  159.8805  143.7556 H        33        0    0.0000
    493 H         158.9321  158.3603  142.9245 H        33        0    0.0000
    494 H         159.8943  160.6331  141.6726 H        33        0    0.0000
    495 H         160.2135  159.0110  141.0603 H        33        0    0.0000
    496 H         162.3954  159.0447  141.6178 H        33        0    0.0000
    497 H         163.4851  161.2532  142.0897 H        33        0    0.0000
    498 H         161.9117  161.9505  142.4586 H        33        0    0.0000
    499 H         162.9985  159.0369  143.9322 H        33        0    0.0000
    500 H         161.8693  160.3385  144.3229 H        33        0    0.0000
    501 H         160.6153  158.4620  145.0441 H        33        0    0.0000
    502 H         161.9388  156.9855  142.7570 H        33        0    0.0000
    503 H         160.2619  156.5784  143.0898 H        33        0    0.0000
    504 C         162.9849  158.8722  146.8911 C.3      34        0    0.0000
    505 C         162.3760  158.3688  145.5913 C.3      34        0    0.0000
    506 C         162.4921  156.8490  145.7245 C.3      34        0    0.0000
    507 C         161.5967  156.1120  144.7255 C.3      34        0    0.0000
    508 C         162.1591  156.5848  147.2044 C.3      34        0    0.0000
    509 C         162.4222  157.9114  147.9463 C.3      34        0    0.0000
    510 C         163.2498  157.7933  149.2325 C.3      34        0    0.0000
    511 H         162.7090  159.9114  147.0959 H        34        0    0.0000
    512 H         164.0772  158.8220  146.8273 H        34        0    0.0000
    513 H         161.3271  158.6808  145.5175 H        34        0    0.0000
    514 H         162.9093  158.7493  144.7148 H        34        0    0.0000
    515 H         163.5414  156.5675  145.5535 H        34        0    0.0000
    516 H         162.1112  155.2238  144.3400 H        34        0    0.0000
    517 H         160.6965  155.7556  145.2402 H        34        0    0.0000
    518 H         161.1049  156.3083  147.3307 H        34        0    0.0000
    519 H         162.7539  155.7508  147.5915 H        34        0    0.0000
    520 H         161.4389  158.3036  148.2459 H        34        0    0.0000
    521 H         163.7164  156.8018  149.2684 H        34        0    0.0000
    522 H         162.5764  157.8550  150.0957 H        34        0    0.0000
    523 C         165.9370  160.2949  152.5032 C.3      35        0    0.0000
    524 C         165.9591  160.0267  150.9961 C.3      35        0    0.0000
    525 C         165.0333  158.8264  150.7587 C.3      35        0    0.0000
    526 C         164.3564  158.8760  149.3861 C.3      35        0    0.0000
    527 C         164.0697  158.8892  151.9484 C.3      35        0    0.0000
    528 C         164.9988  159.2455  153.1136 C.3      35        0    0.0000
    529 C         164.2835  159.7620  154.3651 C.3      35        0    0.0000
    530 H         166.9403  160.2245  152.9370 H        35        0    0.0000
    531 H         165.5742  161.3132  152.6875 H        35        0    0.0000
    532 H         166.9740  159.8160  150.6419 H        35        0    0.0000
    533 H         165.6068  160.9171  150.4617 H        35        0    0.0000
    534 H         165.6338  157.9088  150.8418 H        35        0    0.0000
    535 H         165.1098  158.7179  148.6051 H        35        0    0.0000
    536 H         163.9234  159.8678  149.2113 H        35        0    0.0000
    537 H         163.5575  157.9355  152.1106 H        35        0    0.0000
    538 H         163.3109  159.6675  151.7988 H        35        0    0.0000
    539 H         165.5968  158.3586  153.3692 H        35        0    0.0000
    540 H         163.6329  158.9833  154.7799 H        35        0    0.0000
    541 H         163.6350  160.6025  154.0904 H        35        0    0.0000
    542 C         163.4936  160.7997  158.7674 C.3      36        0    0.0000
    543 C         163.4955  160.8244  157.2453 C.3      36        0    0.0000
    544 C         164.7733  160.0559  156.8927 C.3      36        0    0.0000
    545 C         165.2775  160.2417  155.4582 C.3      36        0    0.0000
    546 C         165.7811  160.4134  158.0027 C.3      36        0    0.0000
    547 C         164.9572  161.0900  159.1157 C.3      36        0    0.0000
    548 C         165.3732  160.7438  160.5486 C.3      36        0    0.0000
    549 H         162.8147  161.5481  159.1876 H        36        0    0.0000
    550 H         163.1737  159.8134  159.1211 H        36        0    0.0000
    551 H         162.6020  160.3501  156.8277 H        36        0    0.0000
    552 H         163.5271  161.8609  156.8921 H        36        0    0.0000
    553 H         164.5437  158.9858  157.0070 H        36        0    0.0000
    554 H         165.4996  161.3023  155.2914 H        36        0    0.0000
    555 H         166.2226  159.6991  155.3374 H        36        0    0.0000
    556 H         166.5659  161.0969  157.6612 H        36        0    0.0000
    557 H         166.2895  159.5044  158.3420 H        36        0    0.0000
    558 H         165.1030  162.1748  159.0015 H        36        0    0.0000
    559 H         165.0242  161.5341  161.2236 H        36        0    0.0000
    560 H         164.8670  159.8209  160.8557 H        36        0    0.0000
    561 C         167.1343  162.2032  157.4229 C.3      37        0    0.0000
    562 C         166.9580  160.8872  158.1844 C.3      37        0    0.0000
    563 C         167.6989  161.0511  159.5237 C.3      37        0    0.0000
    564 C         166.9085  160.5611  160.7432 C.3      37        0    0.0000
    565 C         168.0226  162.5466  159.6006 C.3      37        0    0.0000
    566 C         168.2494  162.9676  158.1447 C.3      37        0    0.0000
    567 C         169.6584  162.6023  157.6402 C.3      37        0    0.0000
    568 H         167.3306  162.0354  156.3596 H        37        0    0.0000
    569 H         166.2019  162.7783  157.4909 H        37        0    0.0000
    570 H         165.8922  160.6677  158.3117 H        37        0    0.0000
    571 H         167.3942  160.0568  157.6171 H        37        0    0.0000
    572 H         168.6478  160.4992  159.4626 H        37        0    0.0000
    573 H         167.1144  159.4964  160.9055 H        37        0    0.0000
    574 H         167.2332  161.0889  161.6473 H        37        0    0.0000
    575 H         168.8880  162.7464  160.2408 H        37        0    0.0000
    576 H         167.1699  163.1012  160.0132 H        37        0    0.0000
    577 H         168.0954  164.0497  158.0463 H        37        0    0.0000
    578 H         169.6708  162.4858  156.5509 H        37        0    0.0000
    579 H         169.9592  161.6382  158.0672 H        37        0    0.0000
    580 C         170.6962  164.9575  161.6179 C.3      38        0    0.0000
    581 C         170.5753  163.7983  160.6406 C.3      38        0    0.0000
    582 C         170.3320  164.4894  159.2930 C.3      38        0    0.0000
    583 C         170.7148  163.6667  158.0562 C.3      38        0    0.0000
    584 C         171.0093  165.8709  159.4045 C.3      38        0    0.0000
    585 C         171.5435  165.9704  160.8451 C.3      38        0    0.0000
    586 C         171.4719  167.3706  161.4592 C.3      38        0    0.0000
    587 H         169.7043  165.3650  161.8483 H        38        0    0.0000
    588 H         171.1685  164.6539  162.5572 H        38        0    0.0000
    589 H         171.5038  163.2172  160.6453 H        38        0    0.0000
    590 H         169.7564  163.1228  160.9074 H        38        0    0.0000
    591 H         169.2502  164.6756  159.2182 H        38        0    0.0000
    592 H         170.8777  164.3477  157.2124 H        38        0    0.0000
    593 H         171.6709  163.1633  158.2426 H        38        0    0.0000
    594 H         170.2644  166.6508  159.2028 H        38        0    0.0000
    595 H         171.8193  166.0118  158.6812 H        38        0    0.0000
    596 H         172.5863  165.6211  160.8491 H        38        0    0.0000
    597 H         170.4512  167.7643  161.3853 H        38        0    0.0000
    598 H         171.7091  167.3100  162.5280 H        38        0    0.0000
    599 C         172.0729  172.0874  161.4678 C.3      39        0    0.0000
    600 C         171.5029  170.7705  160.9596 C.3      39        0    0.0000
    601 C         172.5209  169.7412  161.4615 C.3      39        0    0.0000
    602 C         172.4555  168.3682  160.7855 C.3      39        0    0.0000
    603 C         173.8862  170.4527  161.3900 C.3      39        0    0.0000
    604 C         173.5707  171.9462  161.1774 C.3      39        0    0.0000
    605 C         174.4805  172.9262  161.9244 C.3      39        0    0.0000
    606 H         171.6338  172.9482  160.9542 H        39        0    0.0000
    607 H         171.8688  172.1900  162.5393 H        39        0    0.0000
    608 H         170.4990  170.5810  161.3520 H        39        0    0.0000
    609 H         171.4425  170.7910  159.8659 H        39        0    0.0000
    610 H         172.3069  169.5748  162.5281 H        39        0    0.0000
    611 H         172.1617  168.4990  159.7373 H        39        0    0.0000
    612 H         173.4579  167.9240  160.7786 H        39        0    0.0000
    613 H         174.5126  170.0902  160.5678 H        39        0    0.0000
    614 H         174.4466  170.2629  162.3119 H        39        0    0.0000
    615 H         173.7079  172.1484  160.1044 H        39        0    0.0000
    616 H         175.0149  173.5459  161.1946 H        39        0    0.0000
    617 H         173.8613  173.6061  162.5216 H        39        0    0.0000
    618 C         175.5427  173.5986  166.3169 C.3      40        0    0.0000
    619 C         174.9520  173.7074  164.9091 C.3      40        0    0.0000
    620 C         176.0369  173.2102  163.9370 C.3      40        0    0.0000
    621 C         175.5228  172.2452  162.8615 C.3      40        0    0.0000
    622 C         177.0938  172.5671  164.8406 C.3      40        0    0.0000
    623 C         177.0498  173.3908  166.1322 C.3      40        0    0.0000
    624 C         177.8331  174.7119  166.0135 C.3      40        0    0.0000
    625 H         175.2888  174.4663  166.9333 H        40        0    0.0000
    626 H         175.1160  172.7168  166.8118 H        40        0    0.0000
    627 H         174.0251  173.1267  164.8456 H        40        0    0.0000
    628 H         174.6977  174.7492  164.6815 H        40        0    0.0000
    629 H         176.4909  174.0851  163.4500 H        40        0    0.0000
    630 H         176.3655  171.8991  162.2513 H        40        0    0.0000
    631 H         175.0798  171.3562  163.3249 H        40        0    0.0000
    632 H         178.0840  172.5612  164.3736 H        40        0    0.0000
    633 H         176.8252  171.5259  165.0615 H        40        0    0.0000
    634 H         177.4573  172.7978  166.9608 H        40        0    0.0000
    635 H         177.2915  175.5372  166.4889 H        40        0    0.0000
    636 H         177.9470  174.9736  164.9548 H        40        0    0.0000
    637 C         178.1520  172.4937  169.4901 C.3      41        0    0.0000
    638 C         177.8379  173.6982  168.5995 C.3      41        0    0.0000
    639 C         179.1907  174.2674  168.1357 C.3      41        0    0.0000
    640 C         179.2533  174.5996  166.6398 C.3      41        0    0.0000
    641 C         180.2128  173.2000  168.5396 C.3      41        0    0.0000
    642 C         179.6446  172.5884  169.8247 C.3      41        0    0.0000
    643 C         179.9332  173.4549  171.0653 C.3      41        0    0.0000
    644 H         177.5034  172.4580  170.3707 H        41        0    0.0000
    645 H         177.9691  171.5746  168.9187 H        41        0    0.0000
    646 H         177.1971  173.3909  167.7656 H        41        0    0.0000
    647 H         177.2888  174.4590  169.1664 H        41        0    0.0000
    648 H         179.3996  175.1770  168.7168 H        41        0    0.0000
    649 H         179.7712  175.5562  166.5016 H        41        0    0.0000
    650 H         179.8365  173.8422  166.1035 H        41        0    0.0000
    651 H         181.2140  173.6216  168.6759 H        41        0    0.0000
    652 H         180.2821  172.4250  167.7652 H        41        0    0.0000
    653 H         180.0664  171.5862  169.9731 H        41        0    0.0000
    654 H         179.0706  173.4792  171.7403 H        41        0    0.0000
    655 H         180.1213  174.4885  170.7514 H        41        0    0.0000
    656 C         181.8117  175.0450  174.7920 C.3      42        0    0.0000
    657 C         180.8209  174.6779  173.6884 C.3      42        0    0.0000
    658 C         181.0623  173.1957  173.3541 C.3      42        0    0.0000
    659 C         181.1824  172.9504  171.8442 C.3      42        0    0.0000
    660 C         182.3187  172.8145  174.1521 C.3      42        0    0.0000
    661 C         182.2885  173.7191  175.3906 C.3      42        0    0.0000
    662 C         181.3504  173.2275  176.5081 C.3      42        0    0.0000
    663 H         182.6664  175.5664  174.3424 H        42        0    0.0000
    664 H         181.3722  175.7223  175.5311 H        42        0    0.0000
    665 H         180.9515  175.3370  172.8231 H        42        0    0.0000
    666 H         179.7921  174.8120  174.0428 H        42        0    0.0000
    667 H         180.2113  172.6194  173.7438 H        42        0    0.0000
    668 H         181.3371  171.8840  171.6427 H        42        0    0.0000
    669 H         182.0652  173.4763  171.4611 H        42        0    0.0000
    670 H         182.3402  171.7485  174.3991 H        42        0    0.0000
    671 H         183.2220  173.0349  173.5686 H        42        0    0.0000
    672 H         183.3013  173.8396  175.7957 H        42        0    0.0000
    673 H         181.1897  172.1459  176.4449 H        42        0    0.0000
    674 H         180.3671  173.6979  176.3867 H        42        0    0.0000
    675 C         181.8857  173.5913  177.9219 C.3      43        0    0.0000
    676 C         182.0204  172.3883  178.8665 C.3      43        0    0.0000
    677 H         182.8833  174.0266  177.7807 H        43        0    0.0000
    678 H         181.2606  174.3766  178.3629 H        43        0    0.0000
    679 H         181.1021  172.2298  179.4439 H        43        0    0.0000
    680 H         182.1651  171.4891  178.2541 H        43        0    0.0000
    681 C         186.5782  171.6452  178.2080 C.3      44        0    0.0000
    682 C         185.0987  171.3540  178.4166 C.3      44        0    0.0000
    683 C         184.6005  172.6129  179.1341 C.3      44        0    0.0000
    684 C         183.2475  172.4760  179.8388 C.3      44        0    0.0000
    685 C         185.7731  173.0611  180.0283 C.3      44        0    0.0000
    686 C         186.9980  172.2585  179.5479 C.3      44        0    0.0000
    687 C         188.3248  173.0238  179.5336 C.3      44        0    0.0000
    688 H         187.1446  170.7380  177.9755 H        44        0    0.0000
    689 H         186.7035  172.3470  177.3761 H        44        0    0.0000
    690 H         184.5772  171.1873  177.4689 H        44        0    0.0000
    691 H         184.9816  170.4553  179.0320 H        44        0    0.0000
    692 H         184.4750  173.3898  178.3649 H        44        0    0.0000
    693 H         183.2616  171.5795  180.4700 H        44        0    0.0000
    694 H         183.1047  173.3314  180.5098 H        44        0    0.0000
    695 H         185.5986  172.8613  181.0910 H        44        0    0.0000
    696 H         185.9107  174.1438  179.9361 H        44        0    0.0000
    697 H         187.1261  171.4243  180.2542 H        44        0    0.0000
    698 H         189.1486  172.3149  179.6788 H        44        0    0.0000
    699 H         188.4678  173.4747  178.5445 H        44        0    0.0000
    700 C         186.3781  173.0241  183.5741 C.3      45        0    0.0000
    701 C         186.9779  172.7668  182.1893 C.3      45        0    0.0000
    702 C         187.2328  174.1461  181.5673 C.3      45        0    0.0000
    703 C         188.4306  174.1421  180.6135 C.3      45        0    0.0000
    704 C         187.3933  175.0553  182.7903 C.3      45        0    0.0000
    705 C         186.2954  174.5482  183.7312 C.3      45        0    0.0000
    706 C         186.4488  174.9922  185.1885 C.3      45        0    0.0000
    707 H         185.3887  172.5648  183.6733 H        45        0    0.0000
    708 H         187.0224  172.5761  184.3400 H        45        0    0.0000
    709 H         186.3021  172.1730  181.5644 H        45        0    0.0000
    710 H         187.9083  172.1961  182.2948 H        45        0    0.0000
    711 H         186.3270  174.4486  181.0218 H        45        0    0.0000
    712 H         189.3509  173.9853  181.1889 H        45        0    0.0000
    713 H         188.5280  175.1168  180.1212 H        45        0    0.0000
    714 H         187.2580  176.1112  182.5354 H        45        0    0.0000
    715 H         188.3856  174.9337  183.2426 H        45        0    0.0000
    716 H         185.3210  174.8801  183.3442 H        45        0    0.0000
    717 H         185.7948  174.3985  185.8378 H        45        0    0.0000
    718 H         186.1266  176.0360  185.2847 H        45        0    0.0000
    719 C         188.8422  176.0768  189.1621 C.3      46        0    0.0000
    720 C         189.2541  175.7245  187.7409 C.3      46        0    0.0000
    721 C         188.0668  174.9076  187.2156 C.3      46        0    0.0000
    722 C         187.9149  174.8797  185.6894 C.3      46        0    0.0000
    723 C         186.8351  175.4139  187.9942 C.3      46        0    0.0000
    724 C         187.3645  176.4431  189.0097 C.3      46        0    0.0000
    725 C         186.6308  176.4526  190.3531 C.3      46        0    0.0000
    726 H         188.9691  175.2088  189.8205 H        46        0    0.0000
    727 H         189.4338  176.9035  189.5671 H        46        0    0.0000
    728 H         189.4096  176.6440  187.1662 H        46        0    0.0000
    729 H         190.1869  175.1524  187.7159 H        46        0    0.0000
    730 H         188.2298  173.8658  187.5295 H        46        0    0.0000
    731 H         188.4969  175.7033  185.2589 H        46        0    0.0000
    732 H         188.3514  173.9511  185.3029 H        46        0    0.0000
    733 H         186.3596  174.5649  188.5009 H        46        0    0.0000
    734 H         186.0740  175.8643  187.3484 H        46        0    0.0000
    735 H         187.3025  177.4407  188.5511 H        46        0    0.0000
    736 H         185.6894  177.0081  190.2660 H        46        0    0.0000
    737 H         186.3653  175.4249  190.6282 H        46        0    0.0000
    738 C         187.4773  180.8678  191.6367 C.3      47        0    0.0000
    739 C         187.5889  179.5742  190.8420 C.3      47        0    0.0000
    740 C         187.1192  178.5155  191.8451 C.3      47        0    0.0000
    741 C         187.4857  177.0700  191.4952 C.3      47        0    0.0000
    742 C         187.6108  179.0117  193.2189 C.3      47        0    0.0000
    743 C         188.0401  180.4767  193.0071 C.3      47        0    0.0000
    744 C         187.7047  181.4355  194.1536 C.3      47        0    0.0000
    745 H         188.0460  181.6813  191.1756 H        47        0    0.0000
    746 H         186.4279  181.1769  191.6952 H        47        0    0.0000
    747 H         186.9668  179.5925  189.9418 H        47        0    0.0000
    748 H         188.6285  179.4177  190.5341 H        47        0    0.0000
    749 H         186.0199  178.5624  191.8671 H        47        0    0.0000
    750 H         188.5425  177.0287  191.2058 H        47        0    0.0000
    751 H         187.3798  176.4465  192.3909 H        47        0    0.0000
    752 H         188.4587  178.4335  193.6019 H        47        0    0.0000
    753 H         186.8070  178.9058  193.9554 H        47        0    0.0000
    754 H         189.1366  180.4741  192.9126 H        47        0    0.0000
    755 H         188.5775  181.5265  194.8111 H        47        0    0.0000
    756 H         187.5149  182.4338  193.7421 H        47        0    0.0000
    757 C         188.1652  180.4917  198.3615 C.3      48        0    0.0000
    758 C         188.2643  180.6589  196.8530 C.3      48        0    0.0000
    759 C         186.8345  180.3883  196.3676 C.3      48        0    0.0000
    760 C         186.4759  181.0050  195.0097 C.3      48        0    0.0000
    761 C         185.9138  180.7869  197.5394 C.3      48        0    0.0000
    762 C         186.8453  181.1888  198.6976 C.3      48        0    0.0000
    763 C         186.3331  180.8141  200.0906 C.3      48        0    0.0000
    764 H         188.1288  179.4274  198.6241 H        48        0    0.0000
    765 H         189.0159  180.9439  198.8805 H        48        0    0.0000
    766 H         188.5946  181.6766  196.6183 H        48        0    0.0000
    767 H         188.9845  179.9631  196.4113 H        48        0    0.0000
    768 H         186.7366  179.2990  196.2484 H        48        0    0.0000
    769 H         185.8844  180.2818  194.4356 H        48        0    0.0000
    770 H         185.8330  181.8784  195.1714 H        48        0    0.0000
    771 H         185.2903  179.9262  197.8120 H        48        0    0.0000
    772 H         185.2314  181.6062  197.2901 H        48        0    0.0000
    773 H         187.0070  182.2754  198.6465 H        48        0    0.0000
    774 H         186.1776  181.7175  200.6921 H        48        0    0.0000
    775 H         185.3557  180.3258  199.9979 H        48        0    0.0000
    776 C         189.3286  180.9696  203.1728 C.3      49        0    0.0000
    777 C         188.8932  181.5677  201.8323 C.3      49        0    0.0000
    778 C         188.7432  180.3939  200.8583 C.3      49        0    0.0000
    779 C         187.2994  179.8574  200.8439 C.3      49        0    0.0000
    780 C         189.7847  179.4008  201.3893 C.3      49        0    0.0000
    781 C         189.6523  179.4892  202.9118 C.3      49        0    0.0000
    782 C         190.9012  178.9748  203.6366 C.3      49        0    0.0000
    783 H         190.1898  181.5239  203.5629 H        49        0    0.0000
    784 H         188.5248  181.0563  203.9128 H        49        0    0.0000
    785 H         189.6829  182.2389  201.4716 H        49        0    0.0000
    786 H         187.9827  182.1677  201.9289 H        49        0    0.0000
    787 H         189.0137  180.7153  199.8443 H        49        0    0.0000
    788 H         186.9438  179.7521  201.8760 H        49        0    0.0000
    789 H         187.2507  178.8602  200.3936 H        49        0    0.0000
    790 H         190.7864  179.7223  201.0754 H        49        0    0.0000
    791 H         189.6402  178.3788  201.0264 H        49        0    0.0000
    792 H         188.7867  178.8861  203.2201 H        49        0    0.0000
    793 H         191.1026  179.5820  204.5268 H        49        0    0.0000
    794 H         191.7721  179.0770  202.9783 H        49        0    0.0000
    795 C         190.7579  177.4811  204.0472 C.3      50        0    0.0000
    796 C         191.2679  177.1713  205.4619 C.3      50        0    0.0000
    797 H         189.6869  177.2442  204.0119 H        50        0    0.0000
    798 H         191.2446  176.8441  203.2993 H        50        0    0.0000
    799 H         192.3564  177.0414  205.4739 H        50        0    0.0000
    800 H         191.0482  178.0368  206.1001 H        50        0    0.0000
    801 C         191.2884  176.0842  209.8480 C.3      51        0    0.0000
    802 C         191.3220  176.7410  208.4765 C.3      51        0    0.0000
    803 C         191.1380  175.5637  207.5106 C.3      51        0    0.0000
    804 C         190.5801  175.9304  206.1295 C.3      51        0    0.0000
    805 C         190.3307  174.5061  208.2910 C.3      51        0    0.0000
    806 C         190.1525  175.0679  209.7134 C.3      51        0    0.0000
    807 C         190.1840  174.0166  210.8256 C.3      51        0    0.0000
    808 H         192.2434  175.5856  210.0538 H        51        0    0.0000
    809 H         191.1019  176.8101  210.6454 H        51        0    0.0000
    810 H         190.5078  177.4697  208.3995 H        51        0    0.0000
    811 H         192.2633  177.2711  208.3004 H        51        0    0.0000
    812 H         192.1350  175.1319  207.3369 H        51        0    0.0000
    813 H         190.6886  175.0676  205.4615 H        51        0    0.0000
    814 H         189.5049  176.1259  206.2179 H        51        0    0.0000
    815 H         190.8943  173.5649  208.3039 H        51        0    0.0000
    816 H         189.3584  174.2870  207.8374 H        51        0    0.0000
    817 H         189.1975  175.6120  209.7502 H        51        0    0.0000
    818 H         189.7890  174.4393  211.7569 H        51        0    0.0000
    819 H         189.5257  173.1827  210.5546 H        51        0    0.0000
    820 C         192.6638  174.0892  214.1275 C.3      52        0    0.0000
    821 C         192.0049  174.9836  213.0739 C.3      52        0    0.0000
    822 C         192.5363  174.5201  211.7132 C.3      52        0    0.0000
    823 C         191.6133  173.4613  211.0810 C.3      52        0    0.0000
    824 C         193.9371  174.0086  212.0727 C.3      52        0    0.0000
    825 C         193.7430  173.2705  213.3996 C.3      52        0    0.0000
    826 C         195.0546  173.1151  214.1777 C.3      52        0    0.0000
    827 H         193.0789  174.7082  214.9310 H        52        0    0.0000
    828 H         191.9241  173.4204  214.5823 H        52        0    0.0000
    829 H         192.3138  176.0220  213.2487 H        52        0    0.0000
    830 H         190.9125  174.9590  213.1420 H        52        0    0.0000
    831 H         192.6131  175.3775  211.0322 H        52        0    0.0000
    832 H         191.5327  172.6028  211.7587 H        52        0    0.0000
    833 H         192.0302  173.0802  210.1427 H        52        0    0.0000
    834 H         194.6123  174.8635  212.2082 H        52        0    0.0000
    835 H         194.3769  173.3622  211.3073 H        52        0    0.0000
    836 H         193.3345  172.2729  213.1850 H        52        0    0.0000
    837 H         195.0490  172.1812  214.7517 H        52        0    0.0000
    838 H         195.1473  173.9330  214.9019 H        52        0    0.0000
    839 C         196.2924  173.1393  213.2356 C.3      53        0    0.0000
    840 C         197.6353  172.9984  213.9664 C.3      53        0    0.0000
    841 H         196.2829  174.1108  212.7250 H        53        0    0.0000
    842 H         196.1795  172.3752  212.4576 H        53        0    0.0000
    843 H         197.7239  173.8284  214.6790 H        53        0    0.0000
    844 H         197.6740  172.0744  214.5552 H        53        0    0.0000
    845 C         202.0943  174.0088  214.7748 C.3      54        0    0.0000
    846 C         201.0830  174.1830  213.6520 C.3      54        0    0.0000
    847 C         200.2056  172.9366  213.7846 C.3      54        0    0.0000
    848 C         198.8853  173.0765  213.0229 C.3      54        0    0.0000
    849 C         200.0552  172.7551  215.3061 C.3      54        0    0.0000
    850 C         201.2451  173.4993  215.9462 C.3      54        0    0.0000
    851 C         202.0117  172.7153  217.0189 C.3      54        0    0.0000
    852 H         202.6025  174.9477  215.0161 H        54        0    0.0000
    853 H         202.8570  173.2836  214.4712 H        54        0    0.0000
    854 H         200.4976  175.0975  213.8068 H        54        0    0.0000
    855 H         201.5659  174.2469  212.6721 H        54        0    0.0000
    856 H         200.7669  172.0769  213.3904 H        54        0    0.0000
    857 H         198.8643  174.0251  212.4734 H        54        0    0.0000
    858 H         198.8121  172.2780  212.2749 H        54        0    0.0000
    859 H         199.1197  173.1996  215.6682 H        54        0    0.0000
    860 H         200.0227  171.6921  215.5673 H        54        0    0.0000
    861 H         200.8275  174.3844  216.4490 H        54        0    0.0000
    862 H         201.5406  171.7340  217.1507 H        54        0    0.0000
    863 H         201.9185  173.2396  217.9774 H        54        0    0.0000
    864 C         205.1247  171.2617  219.9060 C.3      55        0    0.0000
    865 C         203.8762  171.6360  219.1220 C.3      55        0    0.0000
    866 C         204.4229  172.4595  217.9490 C.3      55        0    0.0000
    867 C         203.5223  172.5105  216.7083 C.3      55        0    0.0000
    868 C         205.8551  171.9402  217.7065 C.3      55        0    0.0000
    869 C         206.1235  170.8963  218.8060 C.3      55        0    0.0000
    870 C         207.5643  170.8656  219.3216 C.3      55        0    0.0000
    871 H         205.4770  172.1198  220.4914 H        55        0    0.0000
    872 H         204.9429  170.4296  220.5930 H        55        0    0.0000
    873 H         203.3681  170.7256  218.7863 H        55        0    0.0000
    874 H         203.1689  172.2094  219.7296 H        55        0    0.0000
    875 H         204.5212  173.4966  218.3029 H        55        0    0.0000
    876 H         203.8602  173.3252  216.0568 H        55        0    0.0000
    877 H         203.6445  171.5816  216.1387 H        55        0    0.0000
    878 H         206.5564  172.7809  217.7778 H        55        0    0.0000
    879 H         205.9896  171.4989  216.7133 H        55        0    0.0000
    880 H         205.8540  169.9057  218.4115 H        55        0    0.0000
    881 H         207.7784  171.7719  219.9003 H        55        0    0.0000
    882 H         207.6858  170.0186  220.0072 H        55        0    0.0000
    883 C         208.6054  170.7326  218.1748 C.3      56        0    0.0000
    884 C         209.1018  172.0769  217.6238 C.3      56        0    0.0000
    885 H         208.1099  170.1920  217.3582 H        56        0    0.0000
    886 H         209.4407  170.1040  218.5052 H        56        0    0.0000
    887 H         209.2484  172.7589  218.4711 H        56        0    0.0000
    888 H         210.0770  171.9716  217.1339 H        56        0    0.0000
    889 C         207.9881  169.4860  214.9368 C.3      57        0    0.0000
    890 C         208.7735  170.7801  215.1633 C.3      57        0    0.0000
    891 C         207.7363  171.8786  215.4579 C.3      57        0    0.0000
    892 C         208.0934  172.7771  216.6483 C.3      57        0    0.0000
    893 C         206.4246  171.1172  215.6743 C.3      57        0    0.0000
    894 C         206.5257  169.9026  214.7454 C.3      57        0    0.0000
    895 C         206.1814  170.2499  213.2846 C.3      57        0    0.0000
    896 H         208.3940  168.9036  214.1042 H        57        0    0.0000
    897 H         208.0695  168.8615  215.8358 H        57        0    0.0000
    898 H         209.4928  170.6442  215.9784 H        57        0    0.0000
    899 H         209.3466  171.0405  214.2658 H        57        0    0.0000
    900 H         207.6260  172.4993  214.5572 H        57        0    0.0000
    901 H         208.5513  173.7029  216.2801 H        57        0    0.0000
    902 H         207.1884  173.0660  217.1950 H        57        0    0.0000
    903 H         205.5493  171.7407  215.4653 H        57        0    0.0000
    904 H         206.3480  170.7764  216.7150 H        57        0    0.0000
    905 H         205.8541  169.1108  215.1006 H        57        0    0.0000
    906 H         206.7320  169.6107  212.5855 H        57        0    0.0000
    907 H         206.4821  171.2835  213.0757 H        57        0    0.0000
    908 C         204.6557  170.1237  213.0052 C.3      58        0    0.0000
    909 C         204.3197  169.6009  211.6012 C.3      58        0    0.0000
    910 H         204.2572  169.4108  213.7383 H        58        0    0.0000
    911 H         204.1634  171.0834  213.2018 H        58        0    0.0000
    912 H         204.4591  170.3793  210.8418 H        58        0    0.0000
    913 H         205.0262  168.7965  211.3593 H        58        0    0.0000
    914 C         200.2389  170.9378  211.6005 C.3      59        0    0.0000
    915 C         201.5497  170.9498  212.3916 C.3      59        0    0.0000
    916 C         201.9484  169.4845  212.5988 C.3      59        0    0.0000
    917 C         202.8803  168.9919  211.4756 C.3      59        0    0.0000
    918 C         200.5844  168.7840  212.6455 C.3      59        0    0.0000
    919 C         199.7646  169.4758  211.5535 C.3      59        0    0.0000
    920 C         198.2558  169.2911  211.7518 C.3      59        0    0.0000
    921 H         199.5099  171.5991  212.0825 H        59        0    0.0000
    922 H         200.3985  171.3166  210.5845 H        59        0    0.0000
    923 H         201.3691  171.4174  213.3678 H        59        0    0.0000
    924 H         202.3236  171.5412  211.8917 H        59        0    0.0000
    925 H         202.4616  169.3714  213.5624 H        59        0    0.0000
    926 H         202.4642  169.2899  210.5056 H        59        0    0.0000
    927 H         202.9459  167.8987  211.4646 H        59        0    0.0000
    928 H         200.1246  168.9494  213.6286 H        59        0    0.0000
    929 H         200.6419  167.7028  212.4887 H        59        0    0.0000
    930 H         200.0519  169.0499  210.5819 H        59        0    0.0000
    931 H         197.7175  170.1962  211.4473 H        59        0    0.0000
    932 H         198.0446  169.1387  212.8169 H        59        0    0.0000
    933 C         198.4994  168.2456  207.2534 C.3      60        0    0.0000
    934 C         198.8335  168.6301  208.6867 C.3      60        0    0.0000
    935 C         197.5405  168.3206  209.4516 C.3      60        0    0.0000
    936 C         197.7128  168.0702  210.9552 C.3      60        0    0.0000
    937 C         196.8528  167.1850  208.6661 C.3      60        0    0.0000
    938 C         197.7246  166.9370  207.4215 C.3      60        0    0.0000
    939 C         196.9455  166.5614  206.1586 C.3      60        0    0.0000
    940 H         197.8751  169.0184  206.7887 H        60        0    0.0000
    941 H         199.3987  168.1187  206.6431 H        60        0    0.0000
    942 H         199.6771  168.0274  209.0402 H        60        0    0.0000
    943 H         199.1165  169.6840  208.7715 H        60        0    0.0000
    944 H         196.8921  169.2044  209.3574 H        60        0    0.0000
    945 H         196.7455  167.7762  211.3800 H        60        0    0.0000
    946 H         198.3911  167.2212  211.1016 H        60        0    0.0000
    947 H         195.8423  167.5068  208.3849 H        60        0    0.0000
    948 H         196.7415  166.2651  209.2497 H        60        0    0.0000
    949 H         198.4434  166.1394  207.6596 H        60        0    0.0000
    950 H         197.0210  165.4832  205.9743 H        60        0    0.0000
    951 H         195.8820  166.7809  206.3103 H        60        0    0.0000
    952 C         194.0733  168.1974  203.4370 C.3      61        0    0.0000
    953 C         194.9461  167.3727  204.3867 C.3      61        0    0.0000
    954 C         196.3679  167.4157  203.8115 C.3      61        0    0.0000
    955 C         197.4396  167.3315  204.9019 C.3      61        0    0.0000
    956 C         196.3782  168.7188  203.0054 C.3      61        0    0.0000
    957 C         195.0041  168.7042  202.3275 C.3      61        0    0.0000
    958 C         194.5562  170.0558  201.7643 C.3      61        0    0.0000
    959 H         193.2569  167.5973  203.0210 H        61        0    0.0000
    960 H         193.6174  169.0280  203.9889 H        61        0    0.0000
    961 H         194.5860  166.3414  204.4672 H        61        0    0.0000
    962 H         194.9063  167.8101  205.3915 H        61        0    0.0000
    963 H         196.4816  166.5718  203.1156 H        61        0    0.0000
    964 H         197.7280  168.3451  205.2051 H        61        0    0.0000
    965 H         198.3432  166.8496  204.5105 H        61        0    0.0000
    966 H         197.1940  168.7419  202.2758 H        61        0    0.0000
    967 H         196.4813  169.5887  203.6661 H        61        0    0.0000
    968 H         195.0179  167.9547  201.5228 H        61        0    0.0000
    969 H         195.4282  170.6690  201.5085 H        61        0    0.0000
    970 H         194.0002  170.6029  202.5351 H        61        0    0.0000
    971 C         193.6469  169.9030  200.5141 C.3      62        0    0.0000
    972 C         192.1832  170.2992  200.7552 C.3      62        0    0.0000
    973 H         194.0564  170.5663  199.7416 H        62        0    0.0000
    974 H         193.7245  168.8816  200.1235 H        62        0    0.0000
    975 H         191.9323  170.2690  201.8220 H        62        0    0.0000
    976 H         192.0546  171.3401  200.4320 H        62        0    0.0000
    977 C         191.0436  169.7258  196.2867 C.3      63        0    0.0000
    978 C         191.6909  170.2271  197.5768 C.3      63        0    0.0000
    979 C         191.6832  169.0456  198.5621 C.3      63        0    0.0000
    980 C         191.1496  169.4427  199.9448 C.3      63        0    0.0000
    981 C         190.8561  167.9570  197.8609 C.3      63        0    0.0000
    982 C         191.0784  168.1972  196.3622 C.3      63        0    0.0000
    983 C         192.4037  167.6294  195.8222 C.3      63        0    0.0000
    984 H         189.9993  170.0624  196.2597 H        63        0    0.0000
    985 H         191.5359  170.1282  195.3958 H        63        0    0.0000
    986 H         191.1550  171.1034  197.9575 H        63        0    0.0000
    987 H         192.7243  170.5397  197.3855 H        63        0    0.0000
    988 H         192.7171  168.6873  198.6667 H        63        0    0.0000
    989 H         190.8793  168.5493  200.5197 H        63        0    0.0000
    990 H         190.2319  170.0307  199.8236 H        63        0    0.0000
    991 H         191.1447  166.9514  198.1823 H        63        0    0.0000
    992 H         189.7898  168.0819  198.0901 H        63        0    0.0000
    993 H         190.2440  167.7795  195.7844 H        63        0    0.0000
    994 H         193.2139  168.3613  195.9080 H        63        0    0.0000
    995 H         192.2928  167.4086  194.7536 H        63        0    0.0000
    996 C         190.7751  163.6135  198.2114 C.3      64        0    0.0000
    997 C         192.0292  164.0725  197.4629 C.3      64        0    0.0000
    998 C         191.6364  165.3482  196.7063 C.3      64        0    0.0000
    999 C         192.8130  166.3146  196.5444 C.3      64        0    0.0000
   1000 C         190.4682  165.8972  197.5322 C.3      64        0    0.0000
   1001 C         189.6767  164.6309  197.8759 C.3      64        0    0.0000
   1002 C         188.6698  164.7980  199.0173 C.3      64        0    0.0000
   1003 H         190.4783  162.6023  197.9127 H        64        0    0.0000
   1004 H         190.9819  163.5866  199.2880 H        64        0    0.0000
   1005 H         192.3880  163.3014  196.7728 H        64        0    0.0000
   1006 H         192.8340  164.2645  198.1825 H        64        0    0.0000
   1007 H         191.2588  165.0564  195.7155 H        64        0    0.0000
   1008 H         193.6036  165.8278  195.9610 H        64        0    0.0000
   1009 H         193.2449  166.5551  197.5230 H        64        0    0.0000
   1010 H         189.8667  166.6138  196.9640 H        64        0    0.0000
   1011 H         190.8292  166.3938  198.4415 H        64        0    0.0000
   1012 H         189.1556  164.2865  196.9708 H        64        0    0.0000
   1013 H         188.6341  163.8890  199.6291 H        64        0    0.0000
   1014 H         187.6663  164.9361  198.5974 H        64        0    0.0000
   1015 C         188.9989  166.0173  199.9218 C.3      65        0    0.0000
   1016 C         188.5889  165.8336  201.3900 C.3      65        0    0.0000
   1017 H         188.4414  166.8716  199.5170 H        65        0    0.0000
   1018 H         190.0627  166.2668  199.8330 H        65        0    0.0000
   1019 H         188.8015  164.7954  201.6755 H        65        0    0.0000
   1020 H         189.1863  166.4697  202.0536 H        65        0    0.0000
   1021 C         183.9839  164.7704  200.0505 C.3      66        0    0.0000
   1022 C         184.6926  165.0990  201.3668 C.3      66        0    0.0000
   1023 C         186.2007  164.9321  201.1083 C.3      66        0    0.0000
   1024 C         187.0631  166.0739  201.6603 C.3      66        0    0.0000
   1025 C         186.3148  164.7980  199.5864 C.3      66        0    0.0000
   1026 C         185.0276  164.0814  199.1647 C.3      66        0    0.0000
   1027 C         185.1022  162.5592  199.3892 C.3      66        0    0.0000
   1028 H         183.0799  164.1756  200.2120 H        66        0    0.0000
   1029 H         183.6709  165.7084  199.5742 H        66        0    0.0000
   1030 H         184.4261  166.1101  201.6938 H        66        0    0.0000
   1031 H         184.3716  164.4085  202.1555 H        66        0    0.0000
   1032 H         186.5252  163.9836  201.5597 H        66        0    0.0000
   1033 H         186.7690  167.0154  201.1813 H        66        0    0.0000
   1034 H         186.8919  166.1977  202.7358 H        66        0    0.0000
   1035 H         187.2194  164.2576  199.2890 H        66        0    0.0000
   1036 H         186.3519  165.7898  199.1173 H        66        0    0.0000
   1037 H         184.8232  164.2848  198.1058 H        66        0    0.0000
   1038 H         184.7058  162.2843  200.3729 H        66        0    0.0000
   1039 H         186.1507  162.2390  199.3673 H        66        0    0.0000
   1040 C         187.6248  161.6153  196.6702 C.3      67        0    0.0000
   1041 C         186.7242  161.0475  197.7660 C.3      67        0    0.0000
   1042 C         185.2791  161.1555  197.2492 C.3      67        0    0.0000
   1043 C         184.3333  161.7745  198.2869 C.3      67        0    0.0000
   1044 C         185.3894  161.9595  195.9445 C.3      67        0    0.0000
   1045 C         186.7813  161.6261  195.3927 C.3      67        0    0.0000
   1046 C         186.8585  160.2815  194.6467 C.3      67        0    0.0000
   1047 H         187.8961  162.6460  196.9325 H        67        0    0.0000
   1048 H         188.5574  161.0511  196.5704 H        67        0    0.0000
   1049 H         186.8819  161.5857  198.7071 H        67        0    0.0000
   1050 H         186.9706  159.9954  197.9516 H        67        0    0.0000
   1051 H         184.9309  160.1414  197.0075 H        67        0    0.0000
   1052 H         183.7152  160.9969  198.7505 H        67        0    0.0000
   1053 H         183.6470  162.4664  197.7840 H        67        0    0.0000
   1054 H         184.5817  161.7208  195.2458 H        67        0    0.0000
   1055 H         185.3349  163.0357  196.1545 H        67        0    0.0000
   1056 H         187.1269  162.4284  194.7283 H        67        0    0.0000
   1057 H         186.0524  159.6080  194.9570 H        67        0    0.0000
   1058 H         187.8005  159.7808  194.9018 H        67        0    0.0000
   1059 C         186.8154  160.4665  193.1034 C.3      68        0    0.0000
   1060 C         188.0510  159.9189  192.3747 C.3      68        0    0.0000
   1061 H         185.9363  159.9173  192.7429 H        68        0    0.0000
   1062 H         186.6457  161.5225  192.8626 H        68        0    0.0000
   1063 H         188.5887  159.1908  192.9932 H        68        0    0.0000
   1064 H         187.7087  159.3802  191.4819 H        68        0    0.0000
   1065 C         191.4913  162.8826  193.0421 C.3      69        0    0.0000
   1066 C         190.3925  162.0873  193.7523 C.3      69        0    0.0000
   1067 C         189.1384  162.1984  192.8784 C.3      69        0    0.0000
   1068 C         189.0433  161.0282  191.8813 C.3      69        0    0.0000
   1069 C         189.3220  163.5749  192.2267 C.3      69        0    0.0000
   1070 C         190.8133  163.6387  191.8875 C.3      69        0    0.0000
   1071 C         191.3063  165.0773  191.6944 C.3      69        0    0.0000
   1072 H         191.9791  163.5572  193.7549 H        69        0    0.0000
   1073 H         192.2633  162.2095  192.6519 H        69        0    0.0000
   1074 H         190.1960  162.5495  194.7280 H        69        0    0.0000
   1075 H         190.6952  161.0527  193.9435 H        69        0    0.0000
   1076 H         188.2423  162.1997  193.5122 H        69        0    0.0000
   1077 H         190.0347  160.5745  191.7626 H        69        0    0.0000
   1078 H         188.7382  161.3758  190.8885 H        69        0    0.0000
   1079 H         189.0630  164.3575  192.9517 H        69        0    0.0000
   1080 H         188.6960  163.7277  191.3425 H        69        0    0.0000
   1081 H         190.9821  163.0757  190.9588 H        69        0    0.0000
   1082 H         192.3984  165.1207  191.7786 H        69        0    0.0000
   1083 H         190.9005  165.7112  192.4915 H        69        0    0.0000
   1084 C         187.6069  164.9314  188.5079 C.3      70        0    0.0000
   1085 C         188.8967  165.7291  188.6406 C.3      70        0    0.0000
   1086 C         189.6942  164.9205  189.6692 C.3      70        0    0.0000
   1087 C         190.8670  165.6599  190.3204 C.3      70        0    0.0000
   1088 C         188.6429  164.3537  190.6432 C.3      70        0    0.0000
   1089 C         187.2782  164.5690  189.9599 C.3      70        0    0.0000
   1090 C         186.2629  163.4366  190.1412 C.3      70        0    0.0000
   1091 H         186.8100  165.5175  188.0398 H        70        0    0.0000
   1092 H         187.7830  164.0432  187.8912 H        70        0    0.0000
   1093 H         189.4246  165.8145  187.6858 H        70        0    0.0000
   1094 H         188.6713  166.7404  188.9964 H        70        0    0.0000
   1095 H         190.1252  164.0608  189.1342 H        70        0    0.0000
   1096 H         191.7255  165.6402  189.6387 H        70        0    0.0000
   1097 H         190.5959  166.7137  190.4552 H        70        0    0.0000
   1098 H         188.6486  164.8571  191.6160 H        70        0    0.0000
   1099 H         188.8583  163.2980  190.8406 H        70        0    0.0000
   1100 H         186.8328  165.4645  190.4191 H        70        0    0.0000
   1101 H         186.1036  163.2667  191.2127 H        70        0    0.0000
   1102 H         185.2981  163.7502  189.7252 H        70        0    0.0000
   1103 C         186.6802  162.0900  189.4775 C.3      71        0    0.0000
   1104 C         185.4960  161.1994  189.0751 C.3      71        0    0.0000
   1105 H         187.2803  161.5447  190.2172 H        71        0    0.0000
   1106 H         187.3390  162.2874  188.6237 H        71        0    0.0000
   1107 H         184.7166  161.3028  189.8410 H        71        0    0.0000
   1108 H         185.0515  161.5302  188.1290 H        71        0    0.0000
   1109 C         185.8466  159.6735  188.9892 C.3      72        0    0.0000
   1110 C         184.6287  158.7460  189.1071 C.3      72        0    0.0000
   1111 H         186.5224  159.4561  189.8262 H        72        0    0.0000
   1112 H         186.4115  159.4754  188.0707 H        72        0    0.0000
   1113 H         183.9357  159.1851  189.8361 H        72        0    0.0000
   1114 H         184.0844  158.6797  188.1577 H        72        0    0.0000
   1115 C         188.7133  157.7901  189.6102 C.3      73        0    0.0000
   1116 C         187.3167  158.1522  189.0983 C.3      73        0    0.0000
   1117 C         186.4322  156.9251  189.3557 C.3      73        0    0.0000
   1118 C         184.9727  157.3050  189.6206 C.3      73        0    0.0000
   1119 C         187.1337  156.2297  190.5272 C.3      73        0    0.0000
   1120 C         188.6146  156.3593  190.1555 C.3      73        0    0.0000
   1121 C         189.5869  156.1087  191.3115 C.3      73        0    0.0000
   1122 H         189.4613  157.8557  188.8127 H        73        0    0.0000
   1123 H         189.0101  158.4983  190.3930 H        73        0    0.0000
   1124 H         187.3344  158.4071  188.0333 H        73        0    0.0000
   1125 H         186.9475  159.0331  189.6371 H        73        0    0.0000
   1126 H         186.4895  156.2704  188.4739 H        73        0    0.0000
   1127 H         184.7778  157.2633  190.6989 H        73        0    0.0000
   1128 H         184.2994  156.5793  189.1495 H        73        0    0.0000
   1129 H         186.8266  155.1836  190.6250 H        73        0    0.0000
   1130 H         186.9198  156.7422  191.4734 H        73        0    0.0000
   1131 H         188.8318  155.6632  189.3323 H        73        0    0.0000
   1132 H         189.0972  155.5263  192.1008 H        73        0    0.0000
   1133 H         189.8731  157.0683  191.7583 H        73        0    0.0000
   1134 C         190.9401  151.6413  190.1401 C.3      74        0    0.0000
   1135 C         190.8315  152.7987  191.1229 C.3      74        0    0.0000
   1136 C         190.6251  154.0081  190.2050 C.3      74        0    0.0000
   1137 C         190.8757  155.3741  190.8510 C.3      74        0    0.0000
   1138 C         191.4577  153.7069  188.9435 C.3      74        0    0.0000
   1139 C         191.8321  152.2145  189.0341 C.3      74        0    0.0000
   1140 C         191.8114  151.4469  187.7088 C.3      74        0    0.0000
   1141 H         191.3790  150.7519  190.6028 H        74        0    0.0000
   1142 H         189.9438  151.3756  189.7699 H        74        0    0.0000
   1143 H         189.9994  152.6656  191.8211 H        74        0    0.0000
   1144 H         191.7557  152.8769  191.7060 H        74        0    0.0000
   1145 H         189.5688  153.9976  189.8964 H        74        0    0.0000
   1146 H         191.5360  155.2450  191.7169 H        74        0    0.0000
   1147 H         191.4108  156.0143  190.1396 H        74        0    0.0000
   1148 H         192.3699  154.3100  188.8814 H        74        0    0.0000
   1149 H         190.8689  153.9446  188.0509 H        74        0    0.0000
   1150 H         192.8674  152.1705  189.4045 H        74        0    0.0000
   1151 H         192.6887  150.7908  187.6613 H        74        0    0.0000
   1152 H         190.9296  150.7958  187.6854 H        74        0    0.0000
   1153 C         191.7966  152.3552  186.4427 C.3      75        0    0.0000
   1154 C         192.9985  152.1457  185.5105 C.3      75        0    0.0000
   1155 H         190.8852  152.1057  185.8845 H        75        0    0.0000
   1156 H         191.7028  153.4055  186.7427 H        75        0    0.0000
   1157 H         193.0642  152.9416  184.7594 H        75        0    0.0000
   1158 H         193.9128  152.2081  186.1145 H        75        0    0.0000
   1159 C         195.0356  151.0060  181.7457 C.3      76        0    0.0000
   1160 C         194.6801  151.6482  183.0857 C.3      76        0    0.0000
   1161 C         194.3315  150.4987  184.0470 C.3      76        0    0.0000
   1162 C         193.0188  150.7472  184.8017 C.3      76        0    0.0000
   1163 C         194.3178  149.2412  183.1643 C.3      76        0    0.0000
   1164 C         195.3268  149.5335  182.0464 C.3      76        0    0.0000
   1165 C         196.7962  149.3132  182.4497 C.3      76        0    0.0000
   1166 H         194.1669  151.0734  181.0784 H        76        0    0.0000
   1167 H         195.8647  151.5204  181.2498 H        76        0    0.0000
   1168 H         193.8596  152.3633  182.9608 H        76        0    0.0000
   1169 H         195.5379  152.2076  183.4772 H        76        0    0.0000
   1170 H         195.1507  150.4075  184.7743 H        76        0    0.0000
   1171 H         192.8490  149.9561  185.5412 H        76        0    0.0000
   1172 H         192.1813  150.7049  184.0950 H        76        0    0.0000
   1173 H         194.5568  148.3376  183.7335 H        76        0    0.0000
   1174 H         193.3235  149.0974  182.7217 H        76        0    0.0000
   1175 H         195.0992  148.9238  181.1627 H        76        0    0.0000
   1176 H         196.9703  149.6037  183.4913 H        76        0    0.0000
   1177 H         197.4392  149.9540  181.8342 H        76        0    0.0000
   1178 C         193.6155  147.0669  182.1722 C.3      77        0    0.0000
   1179 C         194.8214  147.4483  183.0343 C.3      77        0    0.0000
   1180 C         196.0634  146.8659  182.3360 C.3      77        0    0.0000
   1181 C         197.2447  147.8392  182.2399 C.3      77        0    0.0000
   1182 C         195.5563  146.4260  180.9589 C.3      77        0    0.0000
   1183 C         194.1085  145.9868  181.2031 C.3      77        0    0.0000
   1184 C         194.0166  144.5635  181.7852 C.3      77        0    0.0000
   1185 H         192.7611  146.7570  182.7813 H        77        0    0.0000
   1186 H         193.2989  147.9474  181.5985 H        77        0    0.0000
   1187 H         194.8698  148.5366  183.1507 H        77        0    0.0000
   1188 H         194.7236  147.0192  184.0383 H        77        0    0.0000
   1189 H         196.3791  145.9679  182.8862 H        77        0    0.0000
   1190 H         197.9856  147.5882  183.0083 H        77        0    0.0000
   1191 H         197.7460  147.7384  181.2703 H        77        0    0.0000
   1192 H         196.1748  145.6317  180.5286 H        77        0    0.0000
   1193 H         195.5688  147.2717  180.2592 H        77        0    0.0000
   1194 H         193.5461  146.0335  180.2620 H        77        0    0.0000
   1195 H         193.9931  144.5847  182.8804 H        77        0    0.0000
   1196 H         194.9081  143.9941  181.4967 H        77        0    0.0000
   1197 C         193.2910  142.2816  177.8287 C.3      78        0    0.0000
   1198 C         193.8650  142.7824  179.1453 C.3      78        0    0.0000
   1199 C         192.7272  143.6255  179.7348 C.3      78        0    0.0000
   1200 C         192.7651  143.8036  181.2580 C.3      78        0    0.0000
   1201 C         191.4248  143.0207  179.1714 C.3      78        0    0.0000
   1202 C         191.8557  141.9050  178.2018 C.3      78        0    0.0000
   1203 C         190.9616  141.7470  176.9696 C.3      78        0    0.0000
   1204 H         193.3080  143.0815  177.0784 H        78        0    0.0000
   1205 H         193.8533  141.4297  177.4344 H        78        0    0.0000
   1206 H         194.1192  141.9283  179.7823 H        78        0    0.0000
   1207 H         194.7754  143.3714  178.9963 H        78        0    0.0000
   1208 H         192.8174  144.6335  179.3031 H        78        0    0.0000
   1209 H         191.8661  144.3454  181.5753 H        78        0    0.0000
   1210 H         192.7220  142.8173  181.7351 H        78        0    0.0000
   1211 H         190.8637  143.8056  178.6489 H        78        0    0.0000
   1212 H         190.7641  142.6232  179.9490 H        78        0    0.0000
   1213 H         191.8823  140.9574  178.7594 H        78        0    0.0000
   1214 H         191.2854  140.8843  176.3753 H        78        0    0.0000
   1215 H         189.9342  141.5392  177.2916 H        78        0    0.0000
   1216 C         188.5773  143.6870  173.1834 C.3      79        0    0.0000
   1217 C         189.6437  144.1675  174.1576 C.3      79        0    0.0000
   1218 C         190.1597  142.8616  174.7708 C.3      79        0    0.0000
   1219 C         190.9558  143.0150  176.0704 C.3      79        0    0.0000
   1220 C         188.9293  141.9369  174.8506 C.3      79        0    0.0000
   1221 C         187.8440  142.6065  173.9850 C.3      79        0    0.0000
   1222 C         186.9751  141.6520  173.1603 C.3      79        0    0.0000
   1223 H         187.9082  144.4972  172.8774 H        79        0    0.0000
   1224 H         189.0535  143.2811  172.2841 H        79        0    0.0000
   1225 H         190.4375  144.7262  173.6519 H        79        0    0.0000
   1226 H         189.1904  144.8244  174.9081 H        79        0    0.0000
   1227 H         190.8449  142.4130  174.0358 H        79        0    0.0000
   1228 H         191.9918  143.2786  175.8266 H        79        0    0.0000
   1229 H         190.5447  143.8530  176.6458 H        79        0    0.0000
   1230 H         188.5564  141.8116  175.8729 H        79        0    0.0000
   1231 H         189.1996  140.9365  174.4958 H        79        0    0.0000
   1232 H         187.1654  143.1280  174.6767 H        79        0    0.0000
   1233 H         185.9462  141.6884  173.5374 H        79        0    0.0000
   1234 H         186.9427  142.0033  172.1221 H        79        0    0.0000
   1235 C         187.4607  140.1714  173.1727 C.3      80        0    0.0000
   1236 C         186.3323  139.1433  173.0082 C.3      80        0    0.0000
   1237 H         187.9362  140.0022  174.1473 H        80        0    0.0000
   1238 H         188.2408  140.0321  172.4151 H        80        0    0.0000
   1239 H         186.3302  138.4955  173.8942 H        80        0    0.0000
   1240 H         185.3508  139.6305  172.9739 H        80        0    0.0000
   1241 C         183.2440  137.7608  169.9127 C.3      81        0    0.0000
   1242 C         184.1094  138.4983  170.9378 C.3      81        0    0.0000
   1243 C         185.1940  137.5066  171.3787 C.3      81        0    0.0000
   1244 C         186.5009  138.2061  171.7625 C.3      81        0    0.0000
   1245 C         185.3057  136.5574  170.1810 C.3      81        0    0.0000
   1246 C         183.8417  136.3542  169.7769 C.3      81        0    0.0000
   1247 C         183.6417  135.7695  168.3759 C.3      81        0    0.0000
   1248 H         182.1974  137.7137  170.2324 H        81        0    0.0000
   1249 H         183.2682  138.3009  168.9586 H        81        0    0.0000
   1250 H         183.5154  138.8367  171.7935 H        81        0    0.0000
   1251 H         184.5463  139.3901  170.4725 H        81        0    0.0000
   1252 H         184.8109  136.9406  172.2403 H        81        0    0.0000
   1253 H         186.8503  138.8100  170.9165 H        81        0    0.0000
   1254 H         187.2830  137.4654  171.9664 H        81        0    0.0000
   1255 H         185.7902  135.6137  170.4509 H        81        0    0.0000
   1256 H         185.8778  137.0186  169.3662 H        81        0    0.0000
   1257 H         183.3594  135.7038  170.5212 H        81        0    0.0000
   1258 H         183.3882  136.5644  167.6648 H        81        0    0.0000
   1259 H         182.7923  135.0761  168.3909 H        81        0    0.0000
   1260 C         184.8953  135.0041  167.8705 C.3      82        0    0.0000
   1261 C         184.6372  133.5238  167.5547 C.3      82        0    0.0000
   1262 H         185.2167  135.4987  166.9450 H        82        0    0.0000
   1263 H         185.7146  135.1216  168.5894 H        82        0    0.0000
   1264 H         183.7546  133.1504  168.0872 H        82        0    0.0000
   1265 H         184.4167  133.4378  166.4830 H        82        0    0.0000
   1266 C         185.3431  128.9368  167.4293 C.3      83        0    0.0000
   1267 C         184.7297  130.3335  167.3032 C.3      83        0    0.0000
   1268 C         185.4200  131.2143  168.3600 C.3      83        0    0.0000
   1269 C         185.8624  132.5882  167.8413 C.3      83        0    0.0000
   1270 C         186.5994  130.3686  168.8509 C.3      83        0    0.0000
   1271 C         186.1006  128.9224  168.7614 C.3      83        0    0.0000
   1272 C         185.2130  128.5319  169.9585 C.3      83        0    0.0000
   1273 H         184.5871  128.1505  167.3427 H        83        0    0.0000
   1274 H         186.0564  128.7889  166.6083 H        83        0    0.0000
   1275 H         184.8619  130.7102  166.2830 H        83        0    0.0000
   1276 H         183.6514  130.2955  167.4973 H        83        0    0.0000
   1277 H         184.7255  131.3522  169.2011 H        83        0    0.0000
   1278 H         186.5010  133.0708  168.5907 H        83        0    0.0000
   1279 H         186.4658  132.4784  166.9329 H        83        0    0.0000
   1280 H         186.9121  130.6488  169.8620 H        83        0    0.0000
   1281 H         187.4648  130.4988  168.1882 H        83        0    0.0000
   1282 H         186.9584  128.2402  168.7050 H        83        0    0.0000
   1283 H         184.5304  129.3457  170.2270 H        83        0    0.0000
   1284 H         185.8453  128.3443  170.8344 H        83        0    0.0000
   1285 C         181.3889  125.8785  171.3755 C.3      84        0    0.0000
   1286 C         182.1527  127.1354  170.9518 C.3      84        0    0.0000
   1287 C         183.6436  126.7542  170.9184 C.3      84        0    0.0000
   1288 C         184.3896  127.2431  169.6708 C.3      84        0    0.0000
   1289 C         183.6502  125.2271  171.0412 C.3      84        0    0.0000
   1290 C         182.4390  124.9057  171.9232 C.3      84        0    0.0000
   1291 C         182.7320  125.1119  173.4214 C.3      84        0    0.0000
   1292 H         180.5876  126.1082  172.0841 H        84        0    0.0000
   1293 H         180.9170  125.4363  170.4887 H        84        0    0.0000
   1294 H         181.7825  127.4906  169.9837 H        84        0    0.0000
   1295 H         181.9911  127.9423  171.6761 H        84        0    0.0000
   1296 H         184.1262  127.1706  171.8142 H        84        0    0.0000
   1297 H         185.0769  126.4602  169.3286 H        84        0    0.0000
   1298 H         183.6854  127.4279  168.8515 H        84        0    0.0000
   1299 H         184.5910  124.8532  171.4581 H        84        0    0.0000
   1300 H         183.5176  124.7640  170.0548 H        84        0    0.0000
   1301 H         182.1240  123.8685  171.7520 H        84        0    0.0000
   1302 H         181.8864  125.5902  173.9279 H        84        0    0.0000
   1303 H         183.5921  125.7824  173.5351 H        84        0    0.0000
   1304 C         181.5643  120.5575  175.0815 C.3      85        0    0.0000
   1305 C         181.6676  122.0487  175.3979 C.3      85        0    0.0000
   1306 C         181.9070  122.7680  174.0591 C.3      85        0    0.0000
   1307 C         183.0669  123.7697  174.1345 C.3      85        0    0.0000
   1308 C         182.1211  121.6377  173.0407 C.3      85        0    0.0000
   1309 C         181.2952  120.4618  173.5775 C.3      85        0    0.0000
   1310 C         179.7913  120.5506  173.2602 C.3      85        0    0.0000
   1311 H         182.5260  120.0793  175.3075 H        85        0    0.0000
   1312 H         180.8043  120.0591  175.6914 H        85        0    0.0000
   1313 H         182.4642  122.2300  176.1278 H        85        0    0.0000
   1314 H         180.7331  122.4067  175.8457 H        85        0    0.0000
   1315 H         180.9855  123.3065  173.7964 H        85        0    0.0000
   1316 H         183.9738  123.3359  173.6975 H        85        0    0.0000
   1317 H         183.2932  123.9832  175.1861 H        85        0    0.0000
   1318 H         181.8340  121.9377  172.0282 H        85        0    0.0000
   1319 H         183.1797  121.3483  173.0099 H        85        0    0.0000
   1320 H         181.6909  119.5140  173.1909 H        85        0    0.0000
   1321 H         179.3183  121.3751  173.8044 H        85        0    0.0000
   1322 H         179.2970  119.6304  173.5946 H        85        0    0.0000
   1323 C         182.5158  118.7896  170.6770 C.3      86        0    0.0000
   1324 C         181.9426  119.8177  171.6554 C.3      86        0    0.0000
   1325 C         180.8075  120.5460  170.9136 C.3      86        0    0.0000
   1326 C         179.5244  120.7131  171.7370 C.3      86        0    0.0000
   1327 C         180.5835  119.7139  169.6468 C.3      86        0    0.0000
   1328 C         181.9707  119.1659  169.2950 C.3      86        0    0.0000
   1329 C         182.8431  120.2024  168.5617 C.3      86        0    0.0000
   1330 H         183.6081  118.7471  170.7243 H        86        0    0.0000
   1331 H         182.1431  117.7945  170.9519 H        86        0    0.0000
   1332 H         181.6020  119.3170  172.5684 H        86        0    0.0000
   1333 H         182.7160  120.5367  171.9497 H        86        0    0.0000
   1334 H         181.1738  121.5372  170.6104 H        86        0    0.0000
   1335 H         179.1078  121.7121  171.5613 H        86        0    0.0000
   1336 H         178.7655  119.9912  171.4142 H        86        0    0.0000
   1337 H         180.1432  120.3073  168.8389 H        86        0    0.0000
   1338 H         179.9020  118.8786  169.8540 H        86        0    0.0000
   1339 H         181.8648  118.2701  168.6700 H        86        0    0.0000
   1340 H         183.8760  120.1793  168.9265 H        86        0    0.0000
   1341 H         182.4573  121.2092  168.7612 H        86        0    0.0000
   1342 C         182.8359  119.9775  167.0218 C.3      87        0    0.0000
   1343 C         184.2357  119.8619  166.4016 C.3      87        0    0.0000
   1344 H         182.3049  119.0339  166.8419 H        87        0    0.0000
   1345 H         182.2483  120.7653  166.5361 H        87        0    0.0000
   1346 H         184.2744  120.3348  165.4133 H        87        0    0.0000
   1347 H         184.9378  120.4128  167.0406 H        87        0    0.0000
   1348 C         184.7703  118.3911  166.3049 C.3      88        0    0.0000
   1349 C         185.0549  117.9238  164.8703 C.3      88        0    0.0000
   1350 H         185.7126  118.3588  166.8667 H        88        0    0.0000
   1351 H         184.0776  117.7119  166.8156 H        88        0    0.0000
   1352 H         185.3120  118.7678  164.2195 H        88        0    0.0000
   1353 H         185.9339  117.2670  164.8942 H        88        0    0.0000
   1354 C         181.0528  118.0929  166.5520 C.3      89        0    0.0000
   1355 C         182.4791  118.2748  166.0521 C.3      89        0    0.0000
   1356 C         182.4976  117.4467  164.7631 C.3      89        0    0.0000
   1357 C         183.8889  117.0963  164.2267 C.3      89        0    0.0000
   1358 C         181.5699  116.2470  165.0382 C.3      89        0    0.0000
   1359 C         180.7992  116.5989  166.3257 C.3      89        0    0.0000
   1360 C         179.3290  116.1700  166.3533 C.3      89        0    0.0000
   1361 H         180.9499  118.3726  167.6051 H        89        0    0.0000
   1362 H         180.3723  118.7199  165.9654 H        89        0    0.0000
   1363 H         182.7168  119.3271  165.8683 H        89        0    0.0000
   1364 H         183.1843  117.8920  166.7980 H        89        0    0.0000
   1365 H         182.0073  118.0537  163.9870 H        89        0    0.0000
   1366 H         184.0793  116.0297  164.3950 H        89        0    0.0000
   1367 H         183.9042  117.2515  163.1413 H        89        0    0.0000
   1368 H         182.1179  115.3099  165.1841 H        89        0    0.0000
   1369 H         180.9112  116.0888  164.1775 H        89        0    0.0000
   1370 H         181.2966  116.0628  167.1480 H        89        0    0.0000
   1371 H         178.9552  116.2393  167.3817 H        89        0    0.0000
   1372 H         178.7388  116.8745  165.7554 H        89        0    0.0000
   1373 C         179.0729  114.7270  165.8238 C.3      90        0    0.0000
   1374 C         178.2752  113.8401  166.7905 C.3      90        0    0.0000
   1375 H         178.4932  114.8278  164.8972 H        90        0    0.0000
   1376 H         180.0257  114.2601  165.5481 H        90        0    0.0000
   1377 H         178.2473  114.2725  167.7976 H        90        0    0.0000
   1378 H         177.2368  113.7998  166.4374 H        90        0    0.0000
   1379 C         179.7980  111.8228  170.4762 C.3      91        0    0.0000
   1380 C         179.2016  112.7149  169.3983 C.3      91        0    0.0000
   1381 C         179.6528  112.0494  168.0920 C.3      91        0    0.0000
   1382 C         178.7857  112.3594  166.8652 C.3      91        0    0.0000
   1383 C         179.8201  110.5520  168.4229 C.3      91        0    0.0000
   1384 C         179.5488  110.4146  169.9323 C.3      91        0    0.0000
   1385 C         180.4030  109.3618  170.6430 C.3      91        0    0.0000
   1386 H         180.8714  112.0218  170.5829 H        91        0    0.0000
   1387 H         179.3219  111.9811  171.4487 H        91        0    0.0000
   1388 H         178.1110  112.7310  169.4985 H        91        0    0.0000
   1389 H         179.5602  113.7461  169.4768 H        91        0    0.0000
   1390 H         180.6582  112.4347  167.8657 H        91        0    0.0000
   1391 H         179.3617  112.1407  165.9581 H        91        0    0.0000
   1392 H         177.9209  111.6854  166.8582 H        91        0    0.0000
   1393 H         180.8432  110.2437  168.1739 H        91        0    0.0000
   1394 H         179.1464  109.9073  167.8488 H        91        0    0.0000
   1395 H         178.4840  110.1761  170.0691 H        91        0    0.0000
   1396 H         180.7881  108.6350  169.9180 H        91        0    0.0000
   1397 H         181.2757  109.8482  171.0948 H        91        0    0.0000
   1398 C         179.6194  108.6098  171.7551 C.3      92        0    0.0000
   1399 C         179.7852  107.0840  171.7122 C.3      92        0    0.0000
   1400 H         178.5569  108.8411  171.6058 H        92        0    0.0000
   1401 H         179.8930  109.0133  172.7371 H        92        0    0.0000
   1402 H         179.8896  106.7823  170.6621 H        92        0    0.0000
   1403 H         180.7030  106.7680  172.2218 H        92        0    0.0000
   1404 C         178.5607  106.2936  172.2906 C.3      93        0    0.0000
   1405 C         178.9407  104.9849  172.9980 C.3      93        0    0.0000
   1406 H         177.9135  106.0451  171.4397 H        93        0    0.0000
   1407 H         177.9763  106.9474  172.9485 H        93        0    0.0000
   1408 H         179.4204  104.3270  172.2621 H        93        0    0.0000
   1409 H         179.6783  105.1593  173.7902 H        93        0    0.0000
   1410 C         174.2044  105.1494  173.1013 C.3      94        0    0.0000
   1411 C         175.6633  105.5819  172.9631 C.3      94        0    0.0000
   1412 C         176.4767  104.3064  172.6829 C.3      94        0    0.0000
   1413 C         177.7166  104.1965  173.5799 C.3      94        0    0.0000
   1414 C         175.4732  103.1562  172.8582 C.3      94        0    0.0000
   1415 C         174.1149  103.7562  172.4733 C.3      94        0    0.0000
   1416 C         173.8649  103.8293  170.9559 C.3      94        0    0.0000
   1417 H         173.9539  105.0817  174.1677 H        94        0    0.0000
   1418 H         173.5164  105.8731  172.6530 H        94        0    0.0000
   1419 H         175.9928  106.1081  173.8657 H        94        0    0.0000
   1420 H         175.7738  106.2800  172.1249 H        94        0    0.0000
   1421 H         176.7968  104.3350  171.6317 H        94        0    0.0000
   1422 H         177.9900  103.1449  173.7247 H        94        0    0.0000
   1423 H         177.4831  104.6022  174.5717 H        94        0    0.0000
   1424 H         175.7423  102.2817  172.2578 H        94        0    0.0000
   1425 H         175.4398  102.8365  173.9079 H        94        0    0.0000
   1426 H         173.3032  103.1890  172.9465 H        94        0    0.0000
   1427 H         173.4557  102.8875  170.5747 H        94        0    0.0000
   1428 H         174.8198  103.9874  170.4401 H        94        0    0.0000
   1429 C         171.9873  102.3370  168.8945 C.3      95        0    0.0000
   1430 C         171.7772  103.8306  168.6315 C.3      95        0    0.0000
   1431 C         171.5793  104.4916  170.0000 C.3      95        0    0.0000
   1432 C         172.9142  104.9998  170.5764 C.3      95        0    0.0000
   1433 C         170.9258  103.3644  170.8096 C.3      95        0    0.0000
   1434 C         171.6813  102.1032  170.3832 C.3      95        0    0.0000
   1435 C         170.8904  100.8230  170.6755 C.3      95        0    0.0000
   1436 H         171.3364  101.7503  168.2362 H        95        0    0.0000
   1437 H         173.0205  102.0478  168.6707 H        95        0    0.0000
   1438 H         170.8671  103.9594  168.0321 H        95        0    0.0000
   1439 H         172.6024  104.2646  168.0576 H        95        0    0.0000
   1440 H         170.8863  105.3378  169.9075 H        95        0    0.0000
   1441 H         172.7155  105.5883  171.4804 H        95        0    0.0000
   1442 H         173.4214  105.6691  169.8734 H        95        0    0.0000
   1443 H         169.8664  103.2851  170.5325 H        95        0    0.0000
   1444 H         170.9704  103.5199  171.8917 H        95        0    0.0000
   1445 H         172.6335  102.0676  170.9308 H        95        0    0.0000
   1446 H         171.5555   99.9517  170.6589 H        95        0    0.0000
   1447 H         170.1440  100.6683  169.8874 H        95        0    0.0000
   1448 C         167.3618   98.7383  173.4151 C.3      96        0    0.0000
   1449 C         168.4544   99.7717  173.6427 C.3      96        0    0.0000
   1450 C         169.3286   99.6514  172.3879 C.3      96        0    0.0000
   1451 C         170.1607  100.8943  172.0476 C.3      96        0    0.0000
   1452 C         168.3874   99.1584  171.2696 C.3      96        0    0.0000
   1453 C         167.0194   98.9218  171.9352 C.3      96        0    0.0000
   1454 C         166.2309   97.7360  171.3739 C.3      96        0    0.0000
   1455 H         167.7464   97.7298  173.6103 H        96        0    0.0000
   1456 H         166.4969   98.9068  174.0640 H        96        0    0.0000
   1457 H         168.0040  100.7655  173.7387 H        96        0    0.0000
   1458 H         169.0219   99.5717  174.5570 H        96        0    0.0000
   1459 H         170.0471   98.8392  172.5738 H        96        0    0.0000
   1460 H         169.5051  101.7732  172.0510 H        96        0    0.0000
   1461 H         170.9047  101.0545  172.8369 H        96        0    0.0000
   1462 H         168.7899   98.2287  170.8485 H        96        0    0.0000
   1463 H         168.2964   99.8683  170.4407 H        96        0    0.0000
   1464 H         166.4237   99.8404  171.8309 H        96        0    0.0000
   1465 H         165.2906   97.6124  171.9243 H        96        0    0.0000
   1466 H         165.9604   97.9416  170.3314 H        96        0    0.0000
   1467 C         165.0455   93.2428  170.8042 C.3      97        0    0.0000
   1468 C         166.1833   93.9600  171.5143 C.3      97        0    0.0000
   1469 C         166.3747   95.2369  170.6861 C.3      97        0    0.0000
   1470 C         167.0344   96.4063  171.4279 C.3      97        0    0.0000
   1471 C         164.9963   95.5409  170.0639 C.3      97        0    0.0000
   1472 C         164.0744   94.3794  170.4782 C.3      97        0    0.0000
   1473 C         163.0433   93.9727  169.4226 C.3      97        0    0.0000
   1474 H         165.4123   92.7611  169.8896 H        97        0    0.0000
   1475 H         164.5874   92.4755  171.4357 H        97        0    0.0000
   1476 H         165.8909   94.1776  172.5473 H        97        0    0.0000
   1477 H         167.0932   93.3524  171.5451 H        97        0    0.0000
   1478 H         167.0457   94.9813  169.8524 H        97        0    0.0000
   1479 H         167.1780   96.1256  172.4782 H        97        0    0.0000
   1480 H         168.0331   96.5783  171.0094 H        97        0    0.0000
   1481 H         165.1013   95.5946  168.9731 H        97        0    0.0000
   1482 H         164.5801   96.5000  170.3896 H        97        0    0.0000
   1483 H         163.5566   94.6664  171.4050 H        97        0    0.0000
   1484 H         162.2784   93.3270  169.8701 H        97        0    0.0000
   1485 H         162.5254   94.8679  169.0582 H        97        0    0.0000
   1486 C         161.4780   92.3864  165.2742 C.3      98        0    0.0000
   1487 C         162.1320   93.3925  166.2089 C.3      98        0    0.0000
   1488 C         162.6528   92.5137  167.3480 C.3      98        0    0.0000
   1489 C         163.6866   93.2407  168.2115 C.3      98        0    0.0000
   1490 C         163.1819   91.2588  166.6297 C.3      98        0    0.0000
   1491 C         162.4643   91.2117  165.2649 C.3      98        0    0.0000
   1492 C         161.8618   89.8533  164.8847 C.3      98        0    0.0000
   1493 H         161.3246   92.7994  164.2722 H        98        0    0.0000
   1494 H         160.4984   92.1003  165.6720 H        98        0    0.0000
   1495 H         162.9550   93.9066  165.6975 H        98        0    0.0000
   1496 H         161.4219   94.1473  166.5600 H        98        0    0.0000
   1497 H         161.7975   92.2166  167.9723 H        98        0    0.0000
   1498 H         164.4401   92.5325  168.5762 H        98        0    0.0000
   1499 H         164.2184   93.9770  167.5971 H        98        0    0.0000
   1500 H         164.2641   91.3244  166.4617 H        98        0    0.0000
   1501 H         163.0091   90.3640  167.2369 H        98        0    0.0000
   1502 H         163.2251   91.4371  164.5027 H        98        0    0.0000
   1503 H         162.0782   89.6481  163.8296 H        98        0    0.0000
   1504 H         160.7705   89.9101  164.9761 H        98        0    0.0000
   1505 C         160.1326   85.6268  165.3805 C.3      99        0    0.0000
   1506 C         160.6432   86.9542  164.8413 C.3      99        0    0.0000
   1507 C         161.3039   87.6068  166.0622 C.3      99        0    0.0000
   1508 C         162.3719   88.6609  165.7440 C.3      99        0    0.0000
   1509 C         161.7713   86.4402  166.9568 C.3      99        0    0.0000
   1510 C         161.2845   85.1518  166.2686 C.3      99        0    0.0000
   1511 C         160.8536   84.0381  167.2262 C.3      99        0    0.0000
   1512 H         159.2186   85.7813  165.9667 H        99        0    0.0000
   1513 H         159.9092   84.9173  164.5779 H        99        0    0.0000
   1514 H         161.3592   86.7700  164.0332 H        99        0    0.0000
   1515 H         159.8333   87.5696  164.4371 H        99        0    0.0000
   1516 H         160.5096   88.1285  166.6168 H        99        0    0.0000
   1517 H         162.7753   89.0539  166.6849 H        99        0    0.0000
   1518 H         163.2066   88.1788  165.2215 H        99        0    0.0000
   1519 H         161.3232   86.5521  167.9520 H        99        0    0.0000
   1520 H         162.8568   86.4161  167.0990 H        99        0    0.0000
   1521 H         162.0917   84.7842  165.6183 H        99        0    0.0000
   1522 H         161.7039   83.7159  167.8388 H        99        0    0.0000
   1523 H         160.0972   84.4276  167.9179 H        99        0    0.0000
   1524 C         161.3903   79.9480  168.4888 C.3     100        0    0.0000
   1525 C         161.0633   81.4405  168.4841 C.3     100        0    0.0000
   1526 C         159.9554   81.6460  167.4366 C.3     100        0    0.0000
   1527 C         160.2629   82.8075  166.4824 C.3     100        0    0.0000
   1528 C         159.8180   80.2833  166.7403 C.3     100        0    0.0000
   1529 C         160.2076   79.2537  167.8086 C.3     100        0    0.0000
   1530 C         159.0844   78.9280  168.8100 C.3     100        0    0.0000
   1531 H         162.2976   79.7817  167.8939 H       100        0    0.0000
   1532 H         161.5922   79.5741  169.4974 H       100        0    0.0000
   1533 H         161.9636   82.0281  168.2735 H       100        0    0.0000
   1534 H         160.6992   81.7517  169.4703 H       100        0    0.0000
   1535 H         159.0203   81.8613  167.9729 H       100        0    0.0000
   1536 H         159.3582   83.1039  165.9391 H       100        0    0.0000
   1537 H         160.9892   82.4758  165.7306 H       100        0    0.0000
   1538 H         158.8118   80.1268  166.3395 H       100        0    0.0000
   1539 H         160.5211   80.2123  165.9001 H       100        0    0.0000
   1540 H         160.5481   78.3252  167.3327 H       100        0    0.0000
   1541 H         158.3481   79.7374  168.8583 H       100        0    0.0000
   1542 H         159.5131   78.8342  169.8151 H       100        0    0.0000
   1543 C         160.6976   75.3366  166.7502 C.3     101        0    0.0000
   1544 C         160.5500   76.6052  167.5890 C.3     101        0    0.0000
   1545 C         159.3247   76.3945  168.4952 C.3     101        0    0.0000
   1546 C         158.3660   77.5922  168.4674 C.3     101        0    0.0000
   1547 C         158.6981   75.0796  168.0063 C.3     101        0    0.0000
   1548 C         159.8755   74.2600  167.4633 C.3     101        0    0.0000
   1549 C         160.6969   73.5405  168.5486 C.3     101        0    0.0000
   1550 H         160.2706   75.5174  165.7554 H       101        0    0.0000
   1551 H         161.7462   75.0583  166.6060 H       101        0    0.0000
   1552 H         160.4550   77.4830  166.9405 H       101        0    0.0000
   1553 H         161.4427   76.7566  168.2072 H       101        0    0.0000
   1554 H         159.6865   76.2495  169.5229 H       101        0    0.0000
   1555 H         157.5349   77.4311  169.1638 H       101        0    0.0000
   1556 H         157.9272   77.6817  167.4663 H       101        0    0.0000
   1557 H         158.1478   74.5667  168.8011 H       101        0    0.0000
   1558 H         157.9903   75.2753  167.1902 H       101        0    0.0000
   1559 H         159.5183   73.5232  166.7324 H       101        0    0.0000
   1560 H         161.1683   74.2565  169.2304 H       101        0    0.0000
   1561 H         161.5102   72.9791  168.0729 H       101        0    0.0000
   1562 C         156.0914   72.0585  169.3699 C.3     102        0    0.0000
   1563 C         157.4920   71.6612  169.8103 C.3     102        0    0.0000
   1564 C         158.3889   72.4637  168.8655 C.3     102        0    0.0000
   1565 C         159.8339   72.5371  169.3650 C.3     102        0    0.0000
   1566 C         157.6767   73.8240  168.7522 C.3     102        0    0.0000
   1567 C         156.2044   73.5703  169.1362 C.3     102        0    0.0000
   1568 C         155.1629   74.1650  168.1797 C.3     102        0    0.0000
   1569 H         155.3406   71.8172  170.1290 H       102        0    0.0000
   1570 H         155.8281   71.5174  168.4546 H       102        0    0.0000
   1571 H         157.6580   71.9509  170.8551 H       102        0    0.0000
   1572 H         157.6585   70.5832  169.7230 H       102        0    0.0000
   1573 H         158.3666   71.9815  167.8773 H       102        0    0.0000
   1574 H         159.8541   72.8215  170.4237 H       102        0    0.0000
   1575 H         160.2916   71.5430  169.2974 H       102        0    0.0000
   1576 H         158.1059   74.5557  169.4480 H       102        0    0.0000
   1577 H         157.7928   74.2385  167.7453 H       102        0    0.0000
   1578 H         156.0454   74.0585  170.1092 H       102        0    0.0000
   1579 H         155.6227   74.9838  167.6137 H       102        0    0.0000
   1580 H         154.3509   74.6077  168.7688 H       102        0    0.0000
   1581 C         152.1276   70.6917  168.7504 C.3     103        0    0.0000
   1582 C         152.7878   72.0620  168.7400 C.3     103        0    0.0000
   1583 C         154.0079   71.8652  167.8313 C.3     103        0    0.0000
   1584 C         154.5517   73.1426  167.1790 C.3     103        0    0.0000
   1585 C         153.6224   70.7355  166.8542 C.3     103        0    0.0000
   1586 C         152.2262   70.2527  167.2879 C.3     103        0    0.0000
   1587 C         151.9873   68.7502  167.1190 C.3     103        0    0.0000
   1588 H         152.6806   70.0088  169.4068 H       103        0    0.0000
   1589 H         151.0915   70.7388  169.0994 H       103        0    0.0000
   1590 H         152.0880   72.8024  168.3375 H       103        0    0.0000
   1591 H         153.0748   72.3848  169.7456 H       103        0    0.0000
   1592 H         154.8182   71.4709  168.4626 H       103        0    0.0000
   1593 H         155.3191   72.8683  166.4452 H       103        0    0.0000
   1594 H         153.7444   73.6316  166.6212 H       103        0    0.0000
   1595 H         154.3626   69.9293  166.9309 H       103        0    0.0000
   1596 H         153.6121   71.0576  165.8076 H       103        0    0.0000
   1597 H         151.4753   70.8106  166.7096 H       103        0    0.0000
   1598 H         152.8510   68.1858  167.4902 H       103        0    0.0000
   1599 H         151.1284   68.4490  167.7304 H       103        0    0.0000
   1600 C         150.2055   71.1844  163.7756 C.3     104        0    0.0000
   1601 C         150.6313   70.6411  165.1417 C.3     104        0    0.0000
   1602 C         150.5098   69.1087  165.0633 C.3     104        0    0.0000
   1603 C         151.7122   68.3525  165.6417 C.3     104        0    0.0000
   1604 C         150.2992   68.8179  163.5739 C.3     104        0    0.0000
   1605 C         149.5114   70.0247  163.0529 C.3     104        0    0.0000
   1606 C         148.0074   69.9264  163.3714 C.3     104        0    0.0000
   1607 H         149.5854   72.0810  163.8690 H       104        0    0.0000
   1608 H         151.1038   71.4718  163.2142 H       104        0    0.0000
   1609 H         151.6472   70.9760  165.3783 H       104        0    0.0000
   1610 H         149.9719   71.0268  165.9280 H       104        0    0.0000
   1611 H         149.6002   68.8067  165.6019 H       104        0    0.0000
   1612 H         151.5163   67.2743  165.6023 H       104        0    0.0000
   1613 H         152.6070   68.5351  165.0356 H       104        0    0.0000
   1614 H         149.7794   67.8683  163.4109 H       104        0    0.0000
   1615 H         151.2652   68.7603  163.0557 H       104        0    0.0000
   1616 H         149.6499   70.1140  161.9680 H       104        0    0.0000
   1617 H         147.5164   70.9003  163.2676 H       104        0    0.0000
   1618 H         147.8759   69.6128  164.4138 H       104        0    0.0000
   1619 C         150.7204   68.0591  161.4488 C.3     105        0    0.0000
   1620 C         149.6263   67.8596  162.4966 C.3     105        0    0.0000
   1621 C         148.2821   67.9541  161.7541 C.3     105        0    0.0000
   1622 C         147.2906   68.8888  162.4595 C.3     105        0    0.0000
   1623 C         148.6524   68.3945  160.3294 C.3     105        0    0.0000
   1624 C         150.0546   67.8198  160.0912 C.3     105        0    0.0000
   1625 C         150.0681   66.3298  159.7039 C.3     105        0    0.0000
   1626 H         151.0751   69.0965  161.4993 H       105        0    0.0000
   1627 H         151.5852   67.4127  161.6286 H       105        0    0.0000
   1628 H         149.7244   68.6010  163.2971 H       105        0    0.0000
   1629 H         149.7215   66.8707  162.9602 H       105        0    0.0000
   1630 H         147.8510   66.9441  161.7078 H       105        0    0.0000
   1631 H         146.5756   68.3075  163.0533 H       105        0    0.0000
   1632 H         146.7080   69.4333  161.7067 H       105        0    0.0000
   1633 H         147.9184   68.0563  159.5915 H       105        0    0.0000
   1634 H         148.6984   69.4897  160.2691 H       105        0    0.0000
   1635 H         150.5743   68.3992  159.3175 H       105        0    0.0000
   1636 H         149.3158   65.7662  160.2660 H       105        0    0.0000
   1637 H         151.0420   65.8980  159.9644 H       105        0    0.0000
   1638 C         150.3955   68.4290  155.9117 C.3     106        0    0.0000
   1639 C         149.8502   68.5158  157.3398 C.3     106        0    0.0000
   1640 C         149.0051   67.2567  157.5621 C.3     106        0    0.0000
   1641 C         149.8420   66.1206  158.1797 C.3     106        0    0.0000
   1642 C         148.4841   66.9659  156.1489 C.3     106        0    0.0000
   1643 C         149.6818   67.2455  155.2375 C.3     106        0    0.0000
   1644 C         149.2625   67.5007  153.7853 C.3     106        0    0.0000
   1645 H         150.2189   69.3765  155.3901 H       106        0    0.0000
   1646 H         151.4786   68.2614  155.9223 H       106        0    0.0000
   1647 H         149.2077   69.4019  157.4196 H       106        0    0.0000
   1648 H         150.6511   68.6339  158.0768 H       106        0    0.0000
   1649 H         148.1661   67.4854  158.2318 H       106        0    0.0000
   1650 H         150.8218   66.0867  157.6883 H       106        0    0.0000
   1651 H         149.3739   65.1451  158.0104 H       106        0    0.0000
   1652 H         147.6607   67.6538  155.9166 H       106        0    0.0000
   1653 H         148.1052   65.9473  156.0229 H       106        0    0.0000
   1654 H         150.3515   66.3746  155.2681 H       106        0    0.0000
   1655 H         150.1463   67.5851  153.1424 H       106        0    0.0000
   1656 H         148.7310   68.4576  153.7227 H       106        0    0.0000
   1657 C         149.8095   63.3635  154.7330 C.3     107        0    0.0000
   1658 C         149.5934   64.8694  154.8748 C.3     107        0    0.0000
   1659 C         148.2429   65.1856  154.2091 C.3     107        0    0.0000
   1660 C         148.3322   66.3765  153.2457 C.3     107        0    0.0000
   1661 C         147.8191   63.8692  153.5396 C.3     107        0    0.0000
   1662 C         148.4368   62.7676  154.4102 C.3     107        0    0.0000
   1663 C         147.6377   62.4507  155.6875 C.3     107        0    0.0000
   1664 H         150.4898   63.1804  153.8914 H       107        0    0.0000
   1665 H         150.2733   62.9286  155.6239 H       107        0    0.0000
   1666 H         150.4286   65.4190  154.4271 H       107        0    0.0000
   1667 H         149.5553   65.1486  155.9344 H       107        0    0.0000
   1668 H         147.5222   65.4221  155.0046 H       107        0    0.0000
   1669 H         147.3337   66.7852  153.0517 H       107        0    0.0000
   1670 H         148.7267   66.0335  152.2817 H       107        0    0.0000
   1671 H         146.7316   63.7863  153.4492 H       107        0    0.0000
   1672 H         148.2389   63.8044  152.5273 H       107        0    0.0000
   1673 H         148.5617   61.8480  153.8243 H       107        0    0.0000
   1674 H         147.0162   63.3008  155.9886 H       107        0    0.0000
   1675 H         148.3356   62.2650  156.5129 H       107        0    0.0000
   1676 C         144.4225   60.1738  152.6879 C.3     108        0    0.0000
   1677 C         144.6346   60.6530  154.1171 C.3     108        0    0.0000
   1678 C         146.1165   61.0422  154.1306 C.3     108        0    0.0000
   1679 C         146.7452   61.1885  155.5197 C.3     108        0    0.0000
   1680 C         146.8089   60.0360  153.1906 C.3     108        0    0.0000
   1681 C         145.6746   59.3322  152.4202 C.3     108        0    0.0000
   1682 C         145.9636   59.0341  150.9458 C.3     108        0    0.0000
   1683 H         143.5037   59.5882  152.5852 H       108        0    0.0000
   1684 H         144.3536   61.0356  152.0150 H       108        0    0.0000
   1685 H         143.9852   61.4981  154.3656 H       108        0    0.0000
   1686 H         144.4160   59.8387  154.8167 H       108        0    0.0000
   1687 H         146.1916   62.0284  153.6483 H       108        0    0.0000
   1688 H         145.9482   61.2181  156.2721 H       108        0    0.0000
   1689 H         147.3490   60.2990  155.7354 H       108        0    0.0000
   1690 H         147.4035   59.2901  153.7289 H       108        0    0.0000
   1691 H         147.5039   60.5685  152.5324 H       108        0    0.0000
   1692 H         145.5159   58.3597  152.9103 H       108        0    0.0000
   1693 H         145.5229   58.0650  150.6834 H       108        0    0.0000
   1694 H         145.4641   59.7861  150.3235 H       108        0    0.0000
   1695 C         149.3835   57.1051  153.1349 C.3     109        0    0.0000
   1696 C         148.0423   57.7372  152.7547 C.3     109        0    0.0000
   1697 C         148.3625   58.9278  151.8331 C.3     109        0    0.0000
   1698 C         147.4787   59.0100  150.5824 C.3     109        0    0.0000
   1699 C         149.8456   58.7565  151.4892 C.3     109        0    0.0000
   1700 C         150.4609   58.1211  152.7406 C.3     109        0    0.0000
   1701 C         150.7494   59.1567  153.8440 C.3     109        0    0.0000
   1702 H         149.4133   56.8168  154.1900 H       109        0    0.0000
   1703 H         149.5211   56.1884  152.5471 H       109        0    0.0000
   1704 H         147.3980   56.9907  152.2773 H       109        0    0.0000
   1705 H         147.5194   58.0907  153.6510 H       109        0    0.0000
   1706 H         148.2519   59.8539  152.4151 H       109        0    0.0000
   1707 H         147.7182   59.9252  150.0280 H       109        0    0.0000
   1708 H         147.6858   58.1685  149.9112 H       109        0    0.0000
   1709 H         150.3166   59.7075  151.2198 H       109        0    0.0000
   1710 H         149.9639   58.0749  150.6370 H       109        0    0.0000
   1711 H         151.3914   57.6052  152.4717 H       109        0    0.0000
   1712 H         150.4807   58.7672  154.8323 H       109        0    0.0000
   1713 H         150.1348   60.0489  153.6754 H       109        0    0.0000
   1714 C         155.6198   58.2938  154.4736 C.3     110        0    0.0000
   1715 C         154.3122   58.7728  155.1021 C.3     110        0    0.0000
   1716 C         153.1898   58.4131  154.1132 C.3     110        0    0.0000
   1717 C         152.2435   59.5921  153.8511 C.3     110        0    0.0000
   1718 C         153.9202   57.9061  152.8602 C.3     110        0    0.0000
   1719 C         155.2242   57.2922  153.3855 C.3     110        0    0.0000
   1720 C         155.0684   55.8683  153.9500 C.3     110        0    0.0000
   1721 H         156.1251   59.1505  154.0095 H       110        0    0.0000
   1722 H         156.3063   57.8781  155.2179 H       110        0    0.0000
   1723 H         154.3627   59.8456  155.3181 H       110        0    0.0000
   1724 H         154.1401   58.2601  156.0559 H       110        0    0.0000
   1725 H         152.6146   57.5815  154.5442 H       110        0    0.0000
   1726 H         152.4915   60.0753  152.8989 H       110        0    0.0000
   1727 H         152.3804   60.3474  154.6344 H       110        0    0.0000
   1728 H         153.3118   57.1984  152.2887 H       110        0    0.0000
   1729 H         154.1612   58.7449  152.1942 H       110        0    0.0000
   1730 H         155.9849   57.2862  152.5945 H       110        0    0.0000
   1731 H         154.8070   55.8889  155.0135 H       110        0    0.0000
   1732 H         156.0281   55.3429  153.8735 H       110        0    0.0000
   1733 C         152.5536   52.2204  155.0912 C.3     111        0    0.0000
   1734 C         153.5639   53.3701  155.0829 C.3     111        0    0.0000
   1735 C         153.9834   53.5769  153.6165 C.3     111        0    0.0000
   1736 C         154.0056   55.0439  153.1699 C.3     111        0    0.0000
   1737 C         152.9861   52.7371  152.8118 C.3     111        0    0.0000
   1738 C         152.6646   51.5452  153.7198 C.3     111        0    0.0000
   1739 C         153.7531   50.4563  153.6674 C.3     111        0    0.0000
   1740 H         152.7171   51.5404  155.9327 H       111        0    0.0000
   1741 H         151.5448   52.6374  155.2061 H       111        0    0.0000
   1742 H         153.1163   54.2657  155.5278 H       111        0    0.0000
   1743 H         154.4408   53.1117  155.6879 H       111        0    0.0000
   1744 H         154.9840   53.1424  153.4794 H       111        0    0.0000
   1745 H         154.2424   55.0944  152.1004 H       111        0    0.0000
   1746 H         153.0164   55.4982  153.2981 H       111        0    0.0000
   1747 H         153.3934   52.4349  151.8416 H       111        0    0.0000
   1748 H         152.0694   53.3104  152.6225 H       111        0    0.0000
   1749 H         151.6995   51.1111  153.4292 H       111        0    0.0000
   1750 H         153.5706   49.6781  154.4168 H       111        0    0.0000
   1751 H         154.7264   50.9031  153.9027 H       111        0    0.0000
   1752 C         152.7262   49.0195  149.2741 C.3     112        0    0.0000
   1753 C         153.3875   50.2917  149.8110 C.3     112        0    0.0000
   1754 C         152.8922   50.4675  151.2507 C.3     112        0    0.0000
   1755 C         153.8484   49.8022  152.2586 C.3     112        0    0.0000
   1756 C         151.4952   49.8368  151.1890 C.3     112        0    0.0000
   1757 C         151.6781   48.5932  150.3154 C.3     112        0    0.0000
   1758 C         150.3549   48.0997  149.7193 C.3     112        0    0.0000
   1759 H         152.2832   49.2191  148.2918 H       112        0    0.0000
   1760 H         153.4700   48.2259  149.1393 H       112        0    0.0000
   1761 H         153.0545   51.1451  149.2068 H       112        0    0.0000
   1762 H         154.4786   50.2499  149.7318 H       112        0    0.0000
   1763 H         152.8116   51.5359  151.4884 H       112        0    0.0000
   1764 H         154.8795   49.9068  151.9000 H       112        0    0.0000
   1765 H         153.6539   48.7276  152.3409 H       112        0    0.0000
   1766 H         150.8004   50.5392  150.7101 H       112        0    0.0000
   1767 H         151.0834   49.5878  152.1715 H       112        0    0.0000
   1768 H         152.1105   47.7949  150.9349 H       112        0    0.0000
   1769 H         149.9278   47.3062  150.3435 H       112        0    0.0000
   1770 H         150.5415   47.6616  148.7317 H       112        0    0.0000
   1771 C         149.4637   52.9138  149.3266 C.3     113        0    0.0000
   1772 C         148.8235   51.7149  150.0247 C.3     113        0    0.0000
   1773 C         149.8830   50.5995  150.0459 C.3     113        0    0.0000
   1774 C         149.3229   49.2538  149.5667 C.3     113        0    0.0000
   1775 C         151.0364   51.1394  149.1862 C.3     113        0    0.0000
   1776 C         150.9736   52.6628  149.3542 C.3     113        0    0.0000
   1777 C         151.6144   53.1809  150.6547 C.3     113        0    0.0000
   1778 H         149.1211   52.9419  148.2843 H       113        0    0.0000
   1779 H         149.1724   53.8626  149.7881 H       113        0    0.0000
   1780 H         147.9033   51.4192  149.5091 H       113        0    0.0000
   1781 H         148.5464   51.9783  151.0523 H       113        0    0.0000
   1782 H         150.2380   50.4915  151.0806 H       113        0    0.0000
   1783 H         149.0014   49.3256  148.5212 H       113        0    0.0000
   1784 H         148.4323   49.0022  150.1552 H       113        0    0.0000
   1785 H         152.0011   50.7141  149.4798 H       113        0    0.0000
   1786 H         150.8743   50.8878  148.1300 H       113        0    0.0000
   1787 H         151.4462   53.1577  148.4962 H       113        0    0.0000
   1788 H         151.8579   54.2462  150.5808 H       113        0    0.0000
   1789 H         152.5613   52.6543  150.8251 H       113        0    0.0000
   1790 C         151.0894   55.7160  154.4166 C.3     114        0    0.0000
   1791 C         151.3085   55.1454  153.0130 C.3     114        0    0.0000
   1792 C         151.2421   53.6190  153.1534 C.3     114        0    0.0000
   1793 C         150.7022   52.9413  151.8909 C.3     114        0    0.0000
   1794 C         150.3780   53.4215  154.4033 C.3     114        0    0.0000
   1795 C         150.8997   54.5105  155.3467 C.3     114        0    0.0000
   1796 C         149.9783   54.8263  156.5281 C.3     114        0    0.0000
   1797 H         151.9388   56.3291  154.7365 H       114        0    0.0000
   1798 H         150.2044   56.3635  154.4133 H       114        0    0.0000
   1799 H         152.2726   55.4602  152.5990 H       114        0    0.0000
   1800 H         150.5281   55.5209  152.3403 H       114        0    0.0000
   1801 H         152.2561   53.2500  153.3661 H       114        0    0.0000
   1802 H         149.7029   53.3343  151.6683 H       114        0    0.0000
   1803 H         150.5882   51.8637  152.0569 H       114        0    0.0000
   1804 H         150.4974   52.4201  154.8290 H       114        0    0.0000
   1805 H         149.3159   53.5753  154.1750 H       114        0    0.0000
   1806 H         151.8886   54.2069  155.7200 H       114        0    0.0000
   1807 H         148.9632   55.0384  156.1726 H       114        0    0.0000
   1808 H         150.3330   55.7337  157.0314 H       114        0    0.0000
   1809 H         149.9457   54.0162  157.2566 H       114        0    0.0000
   1810 H         117.4205  155.0115   53.0306 H         0        0    0.0000
@<TRIPOS>BOND
     1     1     2      1
     2     1     6      1
     3     1     8      1
     4     1     9      1
     5     2     3      1
     6     2    10      1
     7     2    11      1
     8     3     4      1
     9     3     5      1
    10     3    12      1
    11     4    13      1
    12     4    14      1
    13     4  1810      H
    14     5     6      1
    15     5    15      1
    16     5    16      1
    17     6     7      1
    18     6    17      1
    19     7    18      1
    20     7    19      1
    21     7    23      1
    22    20    21      1
    23    20    25      1
    24    20    27      1
    25    20    28      1
    26    21    22      1
    27    21    29      1
    28    21    30      1
    29    22    23      1
    30    22    24      1
    31    22    31      1
    32    23    32      1
    33    23    33      1
    34    24    25      1
    35    24    34      1
    36    24    35      1
    37    25    26      1
    38    25    36      1
    39    26    37      1
    40    26    38      1
    41    26    39      1
    42    39    40      1
    43    39    41      1
    44    39    42      1
    45    40    43      1
    46    40    44      1
    47    40    48      1
    48    45    46      1
    49    45    50      1
    50    45    52      1
    51    45    53      1
    52    46    47      1
    53    46    54      1
    54    46    55      1
    55    47    48      1
    56    47    49      1
    57    47    56      1
    58    48    57      1
    59    48    58      1
    60    49    50      1
    61    49    59      1
    62    49    60      1
    63    50    51      1
    64    50    61      1
    65    51    62      1
    66    51    63      1
    67    51    64      1
    68    64    65      1
    69    64    66      1
    70    64    67      1
    71    65    68      1
    72    65    69      1
    73    65    73      1
    74    70    71      1
    75    70    75      1
    76    70    77      1
    77    70    78      1
    78    71    72      1
    79    71    79      1
    80    71    80      1
    81    72    73      1
    82    72    74      1
    83    72    81      1
    84    73    82      1
    85    73    83      1
    86    74    75      1
    87    74    84      1
    88    74    85      1
    89    75    76      1
    90    75    86      1
    91    76    87      1
    92    76    88      1
    93    76    92      1
    94    89    90      1
    95    89    94      1
    96    89    96      1
    97    89    97      1
    98    90    91      1
    99    90    98      1
   100    90    99      1
   101    91    92      1
   102    91    93      1
   103    91   100      1
   104    92   101      1
   105    92   102      1
   106    93    94      1
   107    93   103      1
   108    93   104      1
   109    94    95      1
   110    94   105      1
   111    95   106      1
   112    95   107      1
   113    95   108      1
   114   108   109      1
   115   108   110      1
   116   108   111      1
   117   109   112      1
   118   109   113      1
   119   109   114      1
   120   114   115      1
   121   114   116      1
   122   114   117      1
   123   115   118      1
   124   115   119      1
   125   115   120      1
   126   120   121      1
   127   120   122      1
   128   120   123      1
   129   121   124      1
   130   121   125      1
   131   121   126      1
   132   126   127      1
   133   126   128      1
   134   126   129      1
   135   127   130      1
   136   127   131      1
   137   127   135      1
   138   132   133      1
   139   132   137      1
   140   132   139      1
   141   132   140      1
   142   133   134      1
   143   133   141      1
   144   133   142      1
   145   134   135      1
   146   134   136      1
   147   134   143      1
   148   135   144      1
   149   135   145      1
   150   136   137      1
   151   136   146      1
   152   136   147      1
   153   137   138      1
   154   137   148      1
   155   138   149      1
   156   138   150      1
   157   138   154      1
   158   151   152      1
   159   151   156      1
   160   151   158      1
   161   151   159      1
   162   152   153      1
   163   152   160      1
   164   152   161      1
   165   153   154      1
   166   153   155      1
   167   153   162      1
   168   154   163      1
   169   154   164      1
   170   155   156      1
   171   155   165      1
   172   155   166      1
   173   156   157      1
   174   156   167      1
   175   157   168      1
   176   157   169      1
   177   157   170      1
   178   170   171      1
   179   170   172      1
   180   170   173      1
   181   171   174      1
   182   171   175      1
   183   171   179      1
   184   176   177      1
   185   176   181      1
   186   176   183      1
   187   176   184      1
   188   177   178      1
   189   177   185      1
   190   177   186      1
   191   178   179      1
   192   178   180      1
   193   178   187      1
   194   179   188      1
   195   179   189      1
   196   180   181      1
   197   180   190      1
   198   180   191      1
   199   181   182      1
   200   181   192      1
   201   182   193      1
   202   182   194      1
   203   182   195      1
   204   195   196      1
   205   195   197      1
   206   195   198      1
   207   196   199      1
   208   196   200      1
   209   196   204      1
   210   201   202      1
   211   201   206      1
   212   201   208      1
   213   201   209      1
   214   202   203      1
   215   202   210      1
   216   202   211      1
   217   203   204      1
   218   203   205      1
   219   203   212      1
   220   204   213      1
   221   204   214      1
   222   205   206      1
   223   205   215      1
   224   205   216      1
   225   206   207      1
   226   206   217      1
   227   207   218      1
   228   207   219      1
   229   207   223      1
   230   220   221      1
   231   220   225      1
   232   220   227      1
   233   220   228      1
   234   221   222      1
   235   221   229      1
   236   221   230      1
   237   222   223      1
   238   222   224      1
   239   222   231      1
   240   223   232      1
   241   223   233      1
   242   224   225      1
   243   224   234      1
   244   224   235      1
   245   225   226      1
   246   225   236      1
   247   226   237      1
   248   226   238      1
   249   226   242      1
   250   239   240      1
   251   239   244      1
   252   239   246      1
   253   239   247      1
   254   240   241      1
   255   240   248      1
   256   240   249      1
   257   241   242      1
   258   241   243      1
   259   241   250      1
   260   242   251      1
   261   242   252      1
   262   243   244      1
   263   243   253      1
   264   243   254      1
   265   244   245      1
   266   244   255      1
   267   245   256      1
   268   245   257      1
   269   245   261      1
   270   258   259      1
   271   258   263      1
   272   258   265      1
   273   258   266      1
   274   259   260      1
   275   259   267      1
   276   259   268      1
   277   260   261      1
   278   260   262      1
   279   260   269      1
   280   261   270      1
   281   261   271      1
   282   262   263      1
   283   262   272      1
   284   262   273      1
   285   263   264      1
   286   263   274      1
   287   264   275      1
   288   264   276      1
   289   264   277      1
   290   277   278      1
   291   277   279      1
   292   277   280      1
   293   278   281      1
   294   278   282      1
   295   278   286      1
   296   283   284      1
   297   283   288      1
   298   283   290      1
   299   283   291      1
   300   284   285      1
   301   284   292      1
   302   284   293      1
   303   285   286      1
   304   285   287      1
   305   285   294      1
   306   286   295      1
   307   286   296      1
   308   287   288      1
   309   287   297      1
   310   287   298      1
   311   288   289      1
   312   288   299      1
   313   289   300      1
   314   289   301      1
   315   289   305      1
   316   302   303      1
   317   302   307      1
   318   302   309      1
   319   302   310      1
   320   303   304      1
   321   303   311      1
   322   303   312      1
   323   304   305      1
   324   304   306      1
   325   304   313      1
   326   305   314      1
   327   305   315      1
   328   306   307      1
   329   306   316      1
   330   306   317      1
   331   307   308      1
   332   307   318      1
   333   308   319      1
   334   308   320      1
   335   308   324      1
   336   321   322      1
   337   321   326      1
   338   321   328      1
   339   321   329      1
   340   322   323      1
   341   322   330      1
   342   322   331      1
   343   323   324      1
   344   323   325      1
   345   323   332      1
   346   324   333      1
   347   324   334      1
   348   325   326      1
   349   325   335      1
   350   325   336      1
   351   326   327      1
   352   326   337      1
   353   327   338      1
   354   327   339      1
   355   327   343      1
   356   340   341      1
   357   340   345      1
   358   340   347      1
   359   340   348      1
   360   341   342      1
   361   341   349      1
   362   341   350      1
   363   342   343      1
   364   342   344      1
   365   342   351      1
   366   343   352      1
   367   343   353      1
   368   344   345      1
   369   344   354      1
   370   344   355      1
   371   345   346      1
   372   345   356      1
   373   346   357      1
   374   346   358      1
   375   346   362      1
   376   359   360      1
   377   359   364      1
   378   359   366      1
   379   359   367      1
   380   360   361      1
   381   360   368      1
   382   360   369      1
   383   361   362      1
   384   361   363      1
   385   361   370      1
   386   362   371      1
   387   362   372      1
   388   363   364      1
   389   363   373      1
   390   363   374      1
   391   364   365      1
   392   364   375      1
   393   365   376      1
   394   365   377      1
   395   365   381      1
   396   378   379      1
   397   378   383      1
   398   378   385      1
   399   378   386      1
   400   379   380      1
   401   379   387      1
   402   379   388      1
   403   380   381      1
   404   380   382      1
   405   380   389      1
   406   381   390      1
   407   381   391      1
   408   382   383      1
   409   382   392      1
   410   382   393      1
   411   383   384      1
   412   383   394      1
   413   384   395      1
   414   384   396      1
   415   384   397      1
   416   397   398      1
   417   397   399      1
   418   397   400      1
   419   398   401      1
   420   398   402      1
   421   398   406      1
   422   403   404      1
   423   403   408      1
   424   403   410      1
   425   403   411      1
   426   404   405      1
   427   404   412      1
   428   404   413      1
   429   405   406      1
   430   405   407      1
   431   405   414      1
   432   406   415      1
   433   406   416      1
   434   407   408      1
   435   407   417      1
   436   407   418      1
   437   408   409      1
   438   408   419      1
   439   409   420      1
   440   409   421      1
   441   409   425      1
   442   422   423      1
   443   422   427      1
   444   422   429      1
   445   422   430      1
   446   423   424      1
   447   423   431      1
   448   423   432      1
   449   424   425      1
   450   424   426      1
   451   424   433      1
   452   425   434      1
   453   425   435      1
   454   426   427      1
   455   426   436      1
   456   426   437      1
   457   427   428      1
   458   427   438      1
   459   428   439      1
   460   428   440      1
   461   428   444      1
   462   441   442      1
   463   441   446      1
   464   441   448      1
   465   441   449      1
   466   442   443      1
   467   442   450      1
   468   442   451      1
   469   443   444      1
   470   443   445      1
   471   443   452      1
   472   444   453      1
   473   444   454      1
   474   445   446      1
   475   445   455      1
   476   445   456      1
   477   446   447      1
   478   446   457      1
   479   447   458      1
   480   447   459      1
   481   447   463      1
   482   460   461      1
   483   460   465      1
   484   460   467      1
   485   460   468      1
   486   461   462      1
   487   461   469      1
   488   461   470      1
   489   462   463      1
   490   462   464      1
   491   462   471      1
   492   463   472      1
   493   463   473      1
   494   464   465      1
   495   464   474      1
   496   464   475      1
   497   465   466      1
   498   465   476      1
   499   466   477      1
   500   466   478      1
   501   466   479      1
   502   479   480      1
   503   479   481      1
   504   479   482      1
   505   480   483      1
   506   480   484      1
   507   480   488      1
   508   485   486      1
   509   485   490      1
   510   485   492      1
   511   485   493      1
   512   486   487      1
   513   486   494      1
   514   486   495      1
   515   487   488      1
   516   487   489      1
   517   487   496      1
   518   488   497      1
   519   488   498      1
   520   489   490      1
   521   489   499      1
   522   489   500      1
   523   490   491      1
   524   490   501      1
   525   491   502      1
   526   491   503      1
   527   491   507      1
   528   504   505      1
   529   504   509      1
   530   504   511      1
   531   504   512      1
   532   505   506      1
   533   505   513      1
   534   505   514      1
   535   506   507      1
   536   506   508      1
   537   506   515      1
   538   507   516      1
   539   507   517      1
   540   508   509      1
   541   508   518      1
   542   508   519      1
   543   509   510      1
   544   509   520      1
   545   510   521      1
   546   510   522      1
   547   510   526      1
   548   523   524      1
   549   523   528      1
   550   523   530      1
   551   523   531      1
   552   524   525      1
   553   524   532      1
   554   524   533      1
   555   525   526      1
   556   525   527      1
   557   525   534      1
   558   526   535      1
   559   526   536      1
   560   527   528      1
   561   527   537      1
   562   527   538      1
   563   528   529      1
   564   528   539      1
   565   529   540      1
   566   529   541      1
   567   529   545      1
   568   542   543      1
   569   542   547      1
   570   542   549      1
   571   542   550      1
   572   543   544      1
   573   543   551      1
   574   543   552      1
   575   544   545      1
   576   544   546      1
   577   544   553      1
   578   545   554      1
   579   545   555      1
   580   546   547      1
   581   546   556      1
   582   546   557      1
   583   547   548      1
   584   547   558      1
   585   548   559      1
   586   548   560      1
   587   548   564      1
   588   561   562      1
   589   561   566      1
   590   561   568      1
   591   561   569      1
   592   562   563      1
   593   562   570      1
   594   562   571      1
   595   563   564      1
   596   563   565      1
   597   563   572      1
   598   564   573      1
   599   564   574      1
   600   565   566      1
   601   565   575      1
   602   565   576      1
   603   566   567      1
   604   566   577      1
   605   567   578      1
   606   567   579      1
   607   567   583      1
   608   580   581      1
   609   580   585      1
   610   580   587      1
   611   580   588      1
   612   581   582      1
   613   581   589      1
   614   581   590      1
   615   582   583      1
   616   582   584      1
   617   582   591      1
   618   583   592      1
   619   583   593      1
   620   584   585      1
   621   584   594      1
   622   584   595      1
   623   585   586      1
   624   585   596      1
   625   586   597      1
   626   586   598      1
   627   586   602      1
   628   599   600      1
   629   599   604      1
   630   599   606      1
   631   599   607      1
   632   600   601      1
   633   600   608      1
   634   600   609      1
   635   601   602      1
   636   601   603      1
   637   601   610      1
   638   602   611      1
   639   602   612      1
   640   603   604      1
   641   603   613      1
   642   603   614      1
   643   604   605      1
   644   604   615      1
   645   605   616      1
   646   605   617      1
   647   605   621      1
   648   618   619      1
   649   618   623      1
   650   618   625      1
   651   618   626      1
   652   619   620      1
   653   619   627      1
   654   619   628      1
   655   620   621      1
   656   620   622      1
   657   620   629      1
   658   621   630      1
   659   621   631      1
   660   622   623      1
   661   622   632      1
   662   622   633      1
   663   623   624      1
   664   623   634      1
   665   624   635      1
   666   624   636      1
   667   624   640      1
   668   637   638      1
   669   637   642      1
   670   637   644      1
   671   637   645      1
   672   638   639      1
   673   638   646      1
   674   638   647      1
   675   639   640      1
   676   639   641      1
   677   639   648      1
   678   640   649      1
   679   640   650      1
   680   641   642      1
   681   641   651      1
   682   641   652      1
   683   642   643      1
   684   642   653      1
   685   643   654      1
   686   643   655      1
   687   643   659      1
   688   656   657      1
   689   656   661      1
   690   656   663      1
   691   656   664      1
   692   657   658      1
   693   657   665      1
   694   657   666      1
   695   658   659      1
   696   658   660      1
   697   658   667      1
   698   659   668      1
   699   659   669      1
   700   660   661      1
   701   660   670      1
   702   660   671      1
   703   661   662      1
   704   661   672      1
   705   662   673      1
   706   662   674      1
   707   662   675      1
   708   675   676      1
   709   675   677      1
   710   675   678      1
   711   676   679      1
   712   676   680      1
   713   676   684      1
   714   681   682      1
   715   681   686      1
   716   681   688      1
   717   681   689      1
   718   682   683      1
   719   682   690      1
   720   682   691      1
   721   683   684      1
   722   683   685      1
   723   683   692      1
   724   684   693      1
   725   684   694      1
   726   685   686      1
   727   685   695      1
   728   685   696      1
   729   686   687      1
   730   686   697      1
   731   687   698      1
   732   687   699      1
   733   687   703      1
   734   700   701      1
   735   700   705      1
   736   700   707      1
   737   700   708      1
   738   701   702      1
   739   701   709      1
   740   701   710      1
   741   702   703      1
   742   702   704      1
   743   702   711      1
   744   703   712      1
   745   703   713      1
   746   704   705      1
   747   704   714      1
   748   704   715      1
   749   705   706      1
   750   705   716      1
   751   706   717      1
   752   706   718      1
   753   706   722      1
   754   719   720      1
   755   719   724      1
   756   719   726      1
   757   719   727      1
   758   720   721      1
   759   720   728      1
   760   720   729      1
   761   721   722      1
   762   721   723      1
   763   721   730      1
   764   722   731      1
   765   722   732      1
   766   723   724      1
   767   723   733      1
   768   723   734      1
   769   724   725      1
   770   724   735      1
   771   725   736      1
   772   725   737      1
   773   725   741      1
   774   738   739      1
   775   738   743      1
   776   738   745      1
   777   738   746      1
   778   739   740      1
   779   739   747      1
   780   739   748      1
   781   740   741      1
   782   740   742      1
   783   740   749      1
   784   741   750      1
   785   741   751      1
   786   742   743      1
   787   742   752      1
   788   742   753      1
   789   743   744      1
   790   743   754      1
   791   744   755      1
   792   744   756      1
   793   744   760      1
   794   757   758      1
   795   757   762      1
   796   757   764      1
   797   757   765      1
   798   758   759      1
   799   758   766      1
   800   758   767      1
   801   759   760      1
   802   759   761      1
   803   759   768      1
   804   760   769      1
   805   760   770      1
   806   761   762      1
   807   761   771      1
   808   761   772      1
   809   762   763      1
   810   762   773      1
   811   763   774      1
   812   763   775      1
   813   763   779      1
   814   776   777      1
   815   776   781      1
   816   776   783      1
   817   776   784      1
   818   777   778      1
   819   777   785      1
   820   777   786      1
   821   778   779      1
   822   778   780      1
   823   778   787      1
   824   779   788      1
   825   779   789      1
   826   780   781      1
   827   780   790      1
   828   780   791      1
   829   781   782      1
   830   781   792      1
   831   782   793      1
   832   782   794      1
   833   782   795      1
   834   795   796      1
   835   795   797      1
   836   795   798      1
   837   796   799      1
   838   796   800      1
   839   796   804      1
   840   801   802      1
   841   801   806      1
   842   801   808      1
   843   801   809      1
   844   802   803      1
   845   802   810      1
   846   802   811      1
   847   803   804      1
   848   803   805      1
   849   803   812      1
   850   804   813      1
   851   804   814      1
   852   805   806      1
   853   805   815      1
   854   805   816      1
   855   806   807      1
   856   806   817      1
   857   807   818      1
   858   807   819      1
   859   807   823      1
   860   820   821      1
   861   820   825      1
   862   820   827      1
   863   820   828      1
   864   821   822      1
   865   821   829      1
   866   821   830      1
   867   822   823      1
   868   822   824      1
   869   822   831      1
   870   823   832      1
   871   823   833      1
   872   824   825      1
   873   824   834      1
   874   824   835      1
   875   825   826      1
   876   825   836      1
   877   826   837      1
   878   826   838      1
   879   826   839      1
   880   839   840      1
   881   839   841      1
   882   839   842      1
   883   840   843      1
   884   840   844      1
   885   840   848      1
   886   845   846      1
   887   845   850      1
   888   845   852      1
   889   845   853      1
   890   846   847      1
   891   846   854      1
   892   846   855      1
   893   847   848      1
   894   847   849      1
   895   847   856      1
   896   848   857      1
   897   848   858      1
   898   849   850      1
   899   849   859      1
   900   849   860      1
   901   850   851      1
   902   850   861      1
   903   851   862      1
   904   851   863      1
   905   851   867      1
   906   864   865      1
   907   864   869      1
   908   864   871      1
   909   864   872      1
   910   865   866      1
   911   865   873      1
   912   865   874      1
   913   866   867      1
   914   866   868      1
   915   866   875      1
   916   867   876      1
   917   867   877      1
   918   868   869      1
   919   868   878      1
   920   868   879      1
   921   869   870      1
   922   869   880      1
   923   870   881      1
   924   870   882      1
   925   870   883      1
   926   883   884      1
   927   883   885      1
   928   883   886      1
   929   884   887      1
   930   884   888      1
   931   884   892      1
   932   889   890      1
   933   889   894      1
   934   889   896      1
   935   889   897      1
   936   890   891      1
   937   890   898      1
   938   890   899      1
   939   891   892      1
   940   891   893      1
   941   891   900      1
   942   892   901      1
   943   892   902      1
   944   893   894      1
   945   893   903      1
   946   893   904      1
   947   894   895      1
   948   894   905      1
   949   895   906      1
   950   895   907      1
   951   895   908      1
   952   908   909      1
   953   908   910      1
   954   908   911      1
   955   909   912      1
   956   909   913      1
   957   909   917      1
   958   914   915      1
   959   914   919      1
   960   914   921      1
   961   914   922      1
   962   915   916      1
   963   915   923      1
   964   915   924      1
   965   916   917      1
   966   916   918      1
   967   916   925      1
   968   917   926      1
   969   917   927      1
   970   918   919      1
   971   918   928      1
   972   918   929      1
   973   919   920      1
   974   919   930      1
   975   920   931      1
   976   920   932      1
   977   920   936      1
   978   933   934      1
   979   933   938      1
   980   933   940      1
   981   933   941      1
   982   934   935      1
   983   934   942      1
   984   934   943      1
   985   935   936      1
   986   935   937      1
   987   935   944      1
   988   936   945      1
   989   936   946      1
   990   937   938      1
   991   937   947      1
   992   937   948      1
   993   938   939      1
   994   938   949      1
   995   939   950      1
   996   939   951      1
   997   939   955      1
   998   952   953      1
   999   952   957      1
  1000   952   959      1
  1001   952   960      1
  1002   953   954      1
  1003   953   961      1
  1004   953   962      1
  1005   954   955      1
  1006   954   956      1
  1007   954   963      1
  1008   955   964      1
  1009   955   965      1
  1010   956   957      1
  1011   956   966      1
  1012   956   967      1
  1013   957   958      1
  1014   957   968      1
  1015   958   969      1
  1016   958   970      1
  1017   958   971      1
  1018   971   972      1
  1019   971   973      1
  1020   971   974      1
  1021   972   975      1
  1022   972   976      1
  1023   972   980      1
  1024   977   978      1
  1025   977   982      1
  1026   977   984      1
  1027   977   985      1
  1028   978   979      1
  1029   978   986      1
  1030   978   987      1
  1031   979   980      1
  1032   979   981      1
  1033   979   988      1
  1034   980   989      1
  1035   980   990      1
  1036   981   982      1
  1037   981   991      1
  1038   981   992      1
  1039   982   983      1
  1040   982   993      1
  1041   983   994      1
  1042   983   995      1
  1043   983   999      1
  1044   996   997      1
  1045   996  1001      1
  1046   996  1003      1
  1047   996  1004      1
  1048   997   998      1
  1049   997  1005      1
  1050   997  1006      1
  1051   998   999      1
  1052   998  1000      1
  1053   998  1007      1
  1054   999  1008      1
  1055   999  1009      1
  1056  1000  1001      1
  1057  1000  1010      1
  1058  1000  1011      1
  1059  1001  1002      1
  1060  1001  1012      1
  1061  1002  1013      1
  1062  1002  1014      1
  1063  1002  1015      1
  1064  1015  1016      1
  1065  1015  1017      1
  1066  1015  1018      1
  1067  1016  1019      1
  1068  1016  1020      1
  1069  1016  1024      1
  1070  1021  1022      1
  1071  1021  1026      1
  1072  1021  1028      1
  1073  1021  1029      1
  1074  1022  1023      1
  1075  1022  1030      1
  1076  1022  1031      1
  1077  1023  1024      1
  1078  1023  1025      1
  1079  1023  1032      1
  1080  1024  1033      1
  1081  1024  1034      1
  1082  1025  1026      1
  1083  1025  1035      1
  1084  1025  1036      1
  1085  1026  1027      1
  1086  1026  1037      1
  1087  1027  1038      1
  1088  1027  1039      1
  1089  1027  1043      1
  1090  1040  1041      1
  1091  1040  1045      1
  1092  1040  1047      1
  1093  1040  1048      1
  1094  1041  1042      1
  1095  1041  1049      1
  1096  1041  1050      1
  1097  1042  1043      1
  1098  1042  1044      1
  1099  1042  1051      1
  1100  1043  1052      1
  1101  1043  1053      1
  1102  1044  1045      1
  1103  1044  1054      1
  1104  1044  1055      1
  1105  1045  1046      1
  1106  1045  1056      1
  1107  1046  1057      1
  1108  1046  1058      1
  1109  1046  1059      1
  1110  1059  1060      1
  1111  1059  1061      1
  1112  1059  1062      1
  1113  1060  1063      1
  1114  1060  1064      1
  1115  1060  1068      1
  1116  1065  1066      1
  1117  1065  1070      1
  1118  1065  1072      1
  1119  1065  1073      1
  1120  1066  1067      1
  1121  1066  1074      1
  1122  1066  1075      1
  1123  1067  1068      1
  1124  1067  1069      1
  1125  1067  1076      1
  1126  1068  1077      1
  1127  1068  1078      1
  1128  1069  1070      1
  1129  1069  1079      1
  1130  1069  1080      1
  1131  1070  1071      1
  1132  1070  1081      1
  1133  1071  1082      1
  1134  1071  1083      1
  1135  1071  1087      1
  1136  1084  1085      1
  1137  1084  1089      1
  1138  1084  1091      1
  1139  1084  1092      1
  1140  1085  1086      1
  1141  1085  1093      1
  1142  1085  1094      1
  1143  1086  1087      1
  1144  1086  1088      1
  1145  1086  1095      1
  1146  1087  1096      1
  1147  1087  1097      1
  1148  1088  1089      1
  1149  1088  1098      1
  1150  1088  1099      1
  1151  1089  1090      1
  1152  1089  1100      1
  1153  1090  1101      1
  1154  1090  1102      1
  1155  1090  1103      1
  1156  1103  1104      1
  1157  1103  1105      1
  1158  1103  1106      1
  1159  1104  1107      1
  1160  1104  1108      1
  1161  1104  1109      1
  1162  1109  1110      1
  1163  1109  1111      1
  1164  1109  1112      1
  1165  1110  1113      1
  1166  1110  1114      1
  1167  1110  1118      1
  1168  1115  1116      1
  1169  1115  1120      1
  1170  1115  1122      1
  1171  1115  1123      1
  1172  1116  1117      1
  1173  1116  1124      1
  1174  1116  1125      1
  1175  1117  1118      1
  1176  1117  1119      1
  1177  1117  1126      1
  1178  1118  1127      1
  1179  1118  1128      1
  1180  1119  1120      1
  1181  1119  1129      1
  1182  1119  1130      1
  1183  1120  1121      1
  1184  1120  1131      1
  1185  1121  1132      1
  1186  1121  1133      1
  1187  1121  1137      1
  1188  1134  1135      1
  1189  1134  1139      1
  1190  1134  1141      1
  1191  1134  1142      1
  1192  1135  1136      1
  1193  1135  1143      1
  1194  1135  1144      1
  1195  1136  1137      1
  1196  1136  1138      1
  1197  1136  1145      1
  1198  1137  1146      1
  1199  1137  1147      1
  1200  1138  1139      1
  1201  1138  1148      1
  1202  1138  1149      1
  1203  1139  1140      1
  1204  1139  1150      1
  1205  1140  1151      1
  1206  1140  1152      1
  1207  1140  1153      1
  1208  1153  1154      1
  1209  1153  1155      1
  1210  1153  1156      1
  1211  1154  1157      1
  1212  1154  1158      1
  1213  1154  1162      1
  1214  1159  1160      1
  1215  1159  1164      1
  1216  1159  1166      1
  1217  1159  1167      1
  1218  1160  1161      1
  1219  1160  1168      1
  1220  1160  1169      1
  1221  1161  1162      1
  1222  1161  1163      1
  1223  1161  1170      1
  1224  1162  1171      1
  1225  1162  1172      1
  1226  1163  1164      1
  1227  1163  1173      1
  1228  1163  1174      1
  1229  1164  1165      1
  1230  1164  1175      1
  1231  1165  1176      1
  1232  1165  1177      1
  1233  1165  1181      1
  1234  1178  1179      1
  1235  1178  1183      1
  1236  1178  1185      1
  1237  1178  1186      1
  1238  1179  1180      1
  1239  1179  1187      1
  1240  1179  1188      1
  1241  1180  1181      1
  1242  1180  1182      1
  1243  1180  1189      1
  1244  1181  1190      1
  1245  1181  1191      1
  1246  1182  1183      1
  1247  1182  1192      1
  1248  1182  1193      1
  1249  1183  1184      1
  1250  1183  1194      1
  1251  1184  1195      1
  1252  1184  1196      1
  1253  1184  1200      1
  1254  1197  1198      1
  1255  1197  1202      1
  1256  1197  1204      1
  1257  1197  1205      1
  1258  1198  1199      1
  1259  1198  1206      1
  1260  1198  1207      1
  1261  1199  1200      1
  1262  1199  1201      1
  1263  1199  1208      1
  1264  1200  1209      1
  1265  1200  1210      1
  1266  1201  1202      1
  1267  1201  1211      1
  1268  1201  1212      1
  1269  1202  1203      1
  1270  1202  1213      1
  1271  1203  1214      1
  1272  1203  1215      1
  1273  1203  1219      1
  1274  1216  1217      1
  1275  1216  1221      1
  1276  1216  1223      1
  1277  1216  1224      1
  1278  1217  1218      1
  1279  1217  1225      1
  1280  1217  1226      1
  1281  1218  1219      1
  1282  1218  1220      1
  1283  1218  1227      1
  1284  1219  1228      1
  1285  1219  1229      1
  1286  1220  1221      1
  1287  1220  1230      1
  1288  1220  1231      1
  1289  1221  1222      1
  1290  1221  1232      1
  1291  1222  1233      1
  1292  1222  1234      1
  1293  1222  1235      1
  1294  1235  1236      1
  1295  1235  1237      1
  1296  1235  1238      1
  1297  1236  1239      1
  1298  1236  1240      1
  1299  1236  1244      1
  1300  1241  1242      1
  1301  1241  1246      1
  1302  1241  1248      1
  1303  1241  1249      1
  1304  1242  1243      1
  1305  1242  1250      1
  1306  1242  1251      1
  1307  1243  1244      1
  1308  1243  1245      1
  1309  1243  1252      1
  1310  1244  1253      1
  1311  1244  1254      1
  1312  1245  1246      1
  1313  1245  1255      1
  1314  1245  1256      1
  1315  1246  1247      1
  1316  1246  1257      1
  1317  1247  1258      1
  1318  1247  1259      1
  1319  1247  1260      1
  1320  1260  1261      1
  1321  1260  1262      1
  1322  1260  1263      1
  1323  1261  1264      1
  1324  1261  1265      1
  1325  1261  1269      1
  1326  1266  1267      1
  1327  1266  1271      1
  1328  1266  1273      1
  1329  1266  1274      1
  1330  1267  1268      1
  1331  1267  1275      1
  1332  1267  1276      1
  1333  1268  1269      1
  1334  1268  1270      1
  1335  1268  1277      1
  1336  1269  1278      1
  1337  1269  1279      1
  1338  1270  1271      1
  1339  1270  1280      1
  1340  1270  1281      1
  1341  1271  1272      1
  1342  1271  1282      1
  1343  1272  1283      1
  1344  1272  1284      1
  1345  1272  1288      1
  1346  1285  1286      1
  1347  1285  1290      1
  1348  1285  1292      1
  1349  1285  1293      1
  1350  1286  1287      1
  1351  1286  1294      1
  1352  1286  1295      1
  1353  1287  1288      1
  1354  1287  1289      1
  1355  1287  1296      1
  1356  1288  1297      1
  1357  1288  1298      1
  1358  1289  1290      1
  1359  1289  1299      1
  1360  1289  1300      1
  1361  1290  1291      1
  1362  1290  1301      1
  1363  1291  1302      1
  1364  1291  1303      1
  1365  1291  1307      1
  1366  1304  1305      1
  1367  1304  1309      1
  1368  1304  1311      1
  1369  1304  1312      1
  1370  1305  1306      1
  1371  1305  1313      1
  1372  1305  1314      1
  1373  1306  1307      1
  1374  1306  1308      1
  1375  1306  1315      1
  1376  1307  1316      1
  1377  1307  1317      1
  1378  1308  1309      1
  1379  1308  1318      1
  1380  1308  1319      1
  1381  1309  1310      1
  1382  1309  1320      1
  1383  1310  1321      1
  1384  1310  1322      1
  1385  1310  1326      1
  1386  1323  1324      1
  1387  1323  1328      1
  1388  1323  1330      1
  1389  1323  1331      1
  1390  1324  1325      1
  1391  1324  1332      1
  1392  1324  1333      1
  1393  1325  1326      1
  1394  1325  1327      1
  1395  1325  1334      1
  1396  1326  1335      1
  1397  1326  1336      1
  1398  1327  1328      1
  1399  1327  1337      1
  1400  1327  1338      1
  1401  1328  1329      1
  1402  1328  1339      1
  1403  1329  1340      1
  1404  1329  1341      1
  1405  1329  1342      1
  1406  1342  1343      1
  1407  1342  1344      1
  1408  1342  1345      1
  1409  1343  1346      1
  1410  1343  1347      1
  1411  1343  1348      1
  1412  1348  1349      1
  1413  1348  1350      1
  1414  1348  1351      1
  1415  1349  1352      1
  1416  1349  1353      1
  1417  1349  1357      1
  1418  1354  1355      1
  1419  1354  1359      1
  1420  1354  1361      1
  1421  1354  1362      1
  1422  1355  1356      1
  1423  1355  1363      1
  1424  1355  1364      1
  1425  1356  1357      1
  1426  1356  1358      1
  1427  1356  1365      1
  1428  1357  1366      1
  1429  1357  1367      1
  1430  1358  1359      1
  1431  1358  1368      1
  1432  1358  1369      1
  1433  1359  1360      1
  1434  1359  1370      1
  1435  1360  1371      1
  1436  1360  1372      1
  1437  1360  1373      1
  1438  1373  1374      1
  1439  1373  1375      1
  1440  1373  1376      1
  1441  1374  1377      1
  1442  1374  1378      1
  1443  1374  1382      1
  1444  1379  1380      1
  1445  1379  1384      1
  1446  1379  1386      1
  1447  1379  1387      1
  1448  1380  1381      1
  1449  1380  1388      1
  1450  1380  1389      1
  1451  1381  1382      1
  1452  1381  1383      1
  1453  1381  1390      1
  1454  1382  1391      1
  1455  1382  1392      1
  1456  1383  1384      1
  1457  1383  1393      1
  1458  1383  1394      1
  1459  1384  1385      1
  1460  1384  1395      1
  1461  1385  1396      1
  1462  1385  1397      1
  1463  1385  1398      1
  1464  1398  1399      1
  1465  1398  1400      1
  1466  1398  1401      1
  1467  1399  1402      1
  1468  1399  1403      1
  1469  1399  1404      1
  1470  1404  1405      1
  1471  1404  1406      1
  1472  1404  1407      1
  1473  1405  1408      1
  1474  1405  1409      1
  1475  1405  1413      1
  1476  1410  1411      1
  1477  1410  1415      1
  1478  1410  1417      1
  1479  1410  1418      1
  1480  1411  1412      1
  1481  1411  1419      1
  1482  1411  1420      1
  1483  1412  1413      1
  1484  1412  1414      1
  1485  1412  1421      1
  1486  1413  1422      1
  1487  1413  1423      1
  1488  1414  1415      1
  1489  1414  1424      1
  1490  1414  1425      1
  1491  1415  1416      1
  1492  1415  1426      1
  1493  1416  1427      1
  1494  1416  1428      1
  1495  1416  1432      1
  1496  1429  1430      1
  1497  1429  1434      1
  1498  1429  1436      1
  1499  1429  1437      1
  1500  1430  1431      1
  1501  1430  1438      1
  1502  1430  1439      1
  1503  1431  1432      1
  1504  1431  1433      1
  1505  1431  1440      1
  1506  1432  1441      1
  1507  1432  1442      1
  1508  1433  1434      1
  1509  1433  1443      1
  1510  1433  1444      1
  1511  1434  1435      1
  1512  1434  1445      1
  1513  1435  1446      1
  1514  1435  1447      1
  1515  1435  1451      1
  1516  1448  1449      1
  1517  1448  1453      1
  1518  1448  1455      1
  1519  1448  1456      1
  1520  1449  1450      1
  1521  1449  1457      1
  1522  1449  1458      1
  1523  1450  1451      1
  1524  1450  1452      1
  1525  1450  1459      1
  1526  1451  1460      1
  1527  1451  1461      1
  1528  1452  1453      1
  1529  1452  1462      1
  1530  1452  1463      1
  1531  1453  1454      1
  1532  1453  1464      1
  1533  1454  1465      1
  1534  1454  1466      1
  1535  1454  1470      1
  1536  1467  1468      1
  1537  1467  1472      1
  1538  1467  1474      1
  1539  1467  1475      1
  1540  1468  1469      1
  1541  1468  1476      1
  1542  1468  1477      1
  1543  1469  1470      1
  1544  1469  1471      1
  1545  1469  1478      1
  1546  1470  1479      1
  1547  1470  1480      1
  1548  1471  1472      1
  1549  1471  1481      1
  1550  1471  1482      1
  1551  1472  1473      1
  1552  1472  1483      1
  1553  1473  1484      1
  1554  1473  1485      1
  1555  1473  1489      1
  1556  1486  1487      1
  1557  1486  1491      1
  1558  1486  1493      1
  1559  1486  1494      1
  1560  1487  1488      1
  1561  1487  1495      1
  1562  1487  1496      1
  1563  1488  1489      1
  1564  1488  1490      1
  1565  1488  1497      1
  1566  1489  1498      1
  1567  1489  1499      1
  1568  1490  1491      1
  1569  1490  1500      1
  1570  1490  1501      1
  1571  1491  1492      1
  1572  1491  1502      1
  1573  1492  1503      1
  1574  1492  1504      1
  1575  1492  1508      1
  1576  1505  1506      1
  1577  1505  1510      1
  1578  1505  1512      1
  1579  1505  1513      1
  1580  1506  1507      1
  1581  1506  1514      1
  1582  1506  1515      1
  1583  1507  1508      1
  1584  1507  1509      1
  1585  1507  1516      1
  1586  1508  1517      1
  1587  1508  1518      1
  1588  1509  1510      1
  1589  1509  1519      1
  1590  1509  1520      1
  1591  1510  1511      1
  1592  1510  1521      1
  1593  1511  1522      1
  1594  1511  1523      1
  1595  1511  1527      1
  1596  1524  1525      1
  1597  1524  1529      1
  1598  1524  1531      1
  1599  1524  1532      1
  1600  1525  1526      1
  1601  1525  1533      1
  1602  1525  1534      1
  1603  1526  1527      1
  1604  1526  1528      1
  1605  1526  1535      1
  1606  1527  1536      1
  1607  1527  1537      1
  1608  1528  1529      1
  1609  1528  1538      1
  1610  1528  1539      1
  1611  1529  1530      1
  1612  1529  1540      1
  1613  1530  1541      1
  1614  1530  1542      1
  1615  1530  1546      1
  1616  1543  1544      1
  1617  1543  1548      1
  1618  1543  1550      1
  1619  1543  1551      1
  1620  1544  1545      1
  1621  1544  1552      1
  1622  1544  1553      1
  1623  1545  1546      1
  1624  1545  1547      1
  1625  1545  1554      1
  1626  1546  1555      1
  1627  1546  1556      1
  1628  1547  1548      1
  1629  1547  1557      1
  1630  1547  1558      1
  1631  1548  1549      1
  1632  1548  1559      1
  1633  1549  1560      1
  1634  1549  1561      1
  1635  1549  1565      1
  1636  1562  1563      1
  1637  1562  1567      1
  1638  1562  1569      1
  1639  1562  1570      1
  1640  1563  1564      1
  1641  1563  1571      1
  1642  1563  1572      1
  1643  1564  1565      1
  1644  1564  1566      1
  1645  1564  1573      1
  1646  1565  1574      1
  1647  1565  1575      1
  1648  1566  1567      1
  1649  1566  1576      1
  1650  1566  1577      1
  1651  1567  1568      1
  1652  1567  1578      1
  1653  1568  1579      1
  1654  1568  1580      1
  1655  1568  1584      1
  1656  1581  1582      1
  1657  1581  1586      1
  1658  1581  1588      1
  1659  1581  1589      1
  1660  1582  1583      1
  1661  1582  1590      1
  1662  1582  1591      1
  1663  1583  1584      1
  1664  1583  1585      1
  1665  1583  1592      1
  1666  1584  1593      1
  1667  1584  1594      1
  1668  1585  1586      1
  1669  1585  1595      1
  1670  1585  1596      1
  1671  1586  1587      1
  1672  1586  1597      1
  1673  1587  1598      1
  1674  1587  1599      1
  1675  1587  1603      1
  1676  1600  1601      1
  1677  1600  1605      1
  1678  1600  1607      1
  1679  1600  1608      1
  1680  1601  1602      1
  1681  1601  1609      1
  1682  1601  1610      1
  1683  1602  1603      1
  1684  1602  1604      1
  1685  1602  1611      1
  1686  1603  1612      1
  1687  1603  1613      1
  1688  1604  1605      1
  1689  1604  1614      1
  1690  1604  1615      1
  1691  1605  1606      1
  1692  1605  1616      1
  1693  1606  1617      1
  1694  1606  1618      1
  1695  1606  1622      1
  1696  1619  1620      1
  1697  1619  1624      1
  1698  1619  1626      1
  1699  1619  1627      1
  1700  1620  1621      1
  1701  1620  1628      1
  1702  1620  1629      1
  1703  1621  1622      1
  1704  1621  1623      1
  1705  1621  1630      1
  1706  1622  1631      1
  1707  1622  1632      1
  1708  1623  1624      1
  1709  1623  1633      1
  1710  1623  1634      1
  1711  1624  1625      1
  1712  1624  1635      1
  1713  1625  1636      1
  1714  1625  1637      1
  1715  1625  1641      1
  1716  1638  1639      1
  1717  1638  1643      1
  1718  1638  1645      1
  1719  1638  1646      1
  1720  1639  1640      1
  1721  1639  1647      1
  1722  1639  1648      1
  1723  1640  1641      1
  1724  1640  1642      1
  1725  1640  1649      1
  1726  1641  1650      1
  1727  1641  1651      1
  1728  1642  1643      1
  1729  1642  1652      1
  1730  1642  1653      1
  1731  1643  1644      1
  1732  1643  1654      1
  1733  1644  1655      1
  1734  1644  1656      1
  1735  1644  1660      1
  1736  1657  1658      1
  1737  1657  1662      1
  1738  1657  1664      1
  1739  1657  1665      1
  1740  1658  1659      1
  1741  1658  1666      1
  1742  1658  1667      1
  1743  1659  1660      1
  1744  1659  1661      1
  1745  1659  1668      1
  1746  1660  1669      1
  1747  1660  1670      1
  1748  1661  1662      1
  1749  1661  1671      1
  1750  1661  1672      1
  1751  1662  1663      1
  1752  1662  1673      1
  1753  1663  1674      1
  1754  1663  1675      1
  1755  1663  1679      1
  1756  1676  1677      1
  1757  1676  1681      1
  1758  1676  1683      1
  1759  1676  1684      1
  1760  1677  1678      1
  1761  1677  1685      1
  1762  1677  1686      1
  1763  1678  1679      1
  1764  1678  1680      1
  1765  1678  1687      1
  1766  1679  1688      1
  1767  1679  1689      1
  1768  1680  1681      1
  1769  1680  1690      1
  1770  1680  1691      1
  1771  1681  1682      1
  1772  1681  1692      1
  1773  1682  1693      1
  1774  1682  1694      1
  1775  1682  1698      1
  1776  1695  1696      1
  1777  1695  1700      1
  1778  1695  1702      1
  1779  1695  1703      1
  1780  1696  1697      1
  1781  1696  1704      1
  1782  1696  1705      1
  1783  1697  1698      1
  1784  1697  1699      1
  1785  1697  1706      1
  1786  1698  1707      1
  1787  1698  1708      1
  1788  1699  1700      1
  1789  1699  1709      1
  1790  1699  1710      1
  1791  1700  1701      1
  1792  1700  1711      1
  1793  1701  1712      1
  1794  1701  1713      1
  1795  1701  1717      1
  1796  1714  1715      1
  1797  1714  1719      1
  1798  1714  1721      1
  1799  1714  1722      1
  1800  1715  1716      1
  1801  1715  1723      1
  1802  1715  1724      1
  1803  1716  1717      1
  1804  1716  1718      1
  1805  1716  1725      1
  1806  1717  1726      1
  1807  1717  1727      1
  1808  1718  1719      1
  1809  1718  1728      1
  1810  1718  1729      1
  1811  1719  1720      1
  1812  1719  1730      1
  1813  1720  1731      1
  1814  1720  1732      1
  1815  1720  1736      1
  1816  1733  1734      1
  1817  1733  1738      1
  1818  1733  1740      1
  1819  1733  1741      1
  1820  1734  1735      1
  1821  1734  1742      1
  1822  1734  1743      1
  1823  1735  1736      1
  1824  1735  1737      1
  1825  1735  1744      1
  1826  1736  1745      1
  1827  1736  1746      1
  1828  1737  1738      1
  1829  1737  1747      1
  1830  1737  1748      1
  1831  1738  1739      1
  1832  1738  1749      1
  1833  1739  1750      1
  1834  1739  1751      1
  1835  1739  1755      1
  1836  1752  1753      1
  1837  1752  1757      1
  1838  1752  1759      1
  1839  1752  1760      1
  1840  1753  1754      1
  1841  1753  1761      1
  1842  1753  1762      1
  1843  1754  1755      1
  1844  1754  1756      1
  1845  1754  1763      1
  1846  1755  1764      1
  1847  1755  1765      1
  1848  1756  1757      1
  1849  1756  1766      1
  1850  1756  1767      1
  1851  1757  1758      1
  1852  1757  1768      1
  1853  1758  1769      1
  1854  1758  1770      1
  1855  1758  1774      1
  1856  1771  1772      1
  1857  1771  1776      1
  1858  1771  1778      1
  1859  1771  1779      1
  1860  1772  1773      1
  1861  1772  1780      1
  1862  1772  1781      1
  1863  1773  1774      1
  1864  1773  1775      1
  1865  1773  1782      1
  1866  1774  1783      1
  1867  1774  1784      1
  1868  1775  1776      1
  1869  1775  1785      1
  1870  1775  1786      1
  1871  1776  1777      1
  1872  1776  1787      1
  1873  1777  1788      1
  1874  1777  1789      1
  1875  1777  1793      1
  1876  1790  1791      1
  1877  1790  1795      1
  1878  1790  1797      1
  1879  1790  1798      1
  1880  1791  1792      1
  1881  1791  1799      1
  1882  1791  1800      1
  1883  1792  1793      1
  1884  1792  1794      1
  1885  1792  1801      1
  1886  1793  1802      1
  1887  1793  1803      1
  1888  1794  1795      1
  1889  1794  1804      1
  1890  1794  1805      1
  1891  1795  1796      1
  1892  1795  1806      1
  1893  1796  1807      1
  1894  1796  1808      1
  1895  1796  1809      H
