###
### Created by PolyChef-cpp17 on Wed Feb 26 21:14:12 2025
###

@<TRIPOS>MOLECULE
NO_INFO
1791 1875 1 0 0
SMALL
USER_CHARGES


@<TRIPOS>ATOM
      1 C          69.5562  179.2231   96.7153 C.3       0        0    0.0000
      2 C          69.2598  180.7118   96.5993 C.3       0        0    0.0000
      3 C          70.6518  181.3455   96.6919 C.3       0        0    0.0000
      4 C          70.6721  182.8444   97.0066 C.3       0        0    0.0000
      5 C          71.4408  180.4509   97.6679 C.3       0        0    0.0000
      6 C          70.6014  179.1689   97.8343 C.3       0        0    0.0000
      7 C          71.3992  177.8646   97.9262 C.3       0        0    0.0000
      8 H          68.6596  178.6458   96.9618 H         0        0    0.0000
      9 H          69.9508  178.8492   95.7642 H         0        0    0.0000
     10 H          68.7584  180.9566   95.6579 H         0        0    0.0000
     11 H          68.6088  181.0247   97.4230 H         0        0    0.0000
     12 H          71.1224  181.2272   95.7042 H         0        0    0.0000
     13 H          70.4551  182.9896   98.0716 H         0        0    0.0000
     14 H          71.6830  183.2329   96.8354 H         0        0    0.0000
     15 H          71.5923  180.9187   98.6467 H         0        0    0.0000
     16 H          72.4389  180.2564   97.2608 H         0        0    0.0000
     17 H          70.0564  179.2694   98.7850 H         0        0    0.0000
     18 H          70.7437  177.0697   98.3015 H         0        0    0.0000
     19 H          71.7132  177.5648   96.9194 H         0        0    0.0000
     20 C          72.7155  178.8133  102.4478 C.3       1        0    0.0000
     21 C          71.8847  178.2803  101.2780 C.3       1        0    0.0000
     22 C          72.4552  178.9261  100.0026 C.3       1        0    0.0000
     23 C          72.6590  177.9474   98.8396 C.3       1        0    0.0000
     24 C          73.7671  179.5741  100.4566 C.3       1        0    0.0000
     25 C          73.5023  180.0098  101.9017 C.3       1        0    0.0000
     26 C          72.7216  181.3353  101.9820 C.3       1        0    0.0000
     27 H          72.0920  179.0532  103.3143 H         1        0    0.0000
     28 H          73.4202  178.0338  102.7646 H         1        0    0.0000
     29 H          71.9270  177.1857  101.2562 H         1        0    0.0000
     30 H          70.8319  178.5613  101.3985 H         1        0    0.0000
     31 H          71.7711  179.7263   99.6856 H         1        0    0.0000
     32 H          73.5089  178.2785   98.2310 H         1        0    0.0000
     33 H          72.9090  176.9496   99.2181 H         1        0    0.0000
     34 H          74.0592  180.4065   99.8082 H         1        0    0.0000
     35 H          74.5821  178.8389  100.4397 H         1        0    0.0000
     36 H          74.4557  180.1146  102.4350 H         1        0    0.0000
     37 H          71.6403  181.1592  101.9682 H         1        0    0.0000
     38 H          72.9555  181.9492  101.1041 H         1        0    0.0000
     39 C          73.0944  182.1491  103.2551 C.3       2        0    0.0000
     40 C          72.1160  181.9624  104.4236 C.3       2        0    0.0000
     41 H          74.0822  181.7964  103.5785 H         2        0    0.0000
     42 H          73.2090  183.2082  102.9962 H         2        0    0.0000
     43 H          71.3118  182.7069  104.3933 H         2        0    0.0000
     44 H          71.6385  180.9802  104.3142 H         2        0    0.0000
     45 C          75.9798  180.3516  104.8331 C.3       3        0    0.0000
     46 C          74.4647  180.4228  104.6275 C.3       3        0    0.0000
     47 C          73.8597  180.8796  105.9670 C.3       3        0    0.0000
     48 C          72.7987  181.9792  105.8351 C.3       3        0    0.0000
     49 C          75.0661  181.3295  106.7973 C.3       3        0    0.0000
     50 C          76.2079  180.4118  106.3474 C.3       3        0    0.0000
     51 C          76.1513  179.0288  107.0237 C.3       3        0    0.0000
     52 H          76.4146  179.4683  104.3558 H         3        0    0.0000
     53 H          76.4415  181.2303  104.3647 H         3        0    0.0000
     54 H          74.2302  181.1024  103.8007 H         3        0    0.0000
     55 H          74.0696  179.4364  104.3578 H         3        0    0.0000
     56 H          73.4133  180.0043  106.4602 H         3        0    0.0000
     57 H          72.0249  181.8305  106.5976 H         3        0    0.0000
     58 H          73.2427  182.9639  106.0208 H         3        0    0.0000
     59 H          74.8697  181.2680  107.8727 H         3        0    0.0000
     60 H          75.3216  182.3717  106.5661 H         3        0    0.0000
     61 H          77.1716  180.8877  106.5693 H         3        0    0.0000
     62 H          77.0526  178.4449  106.8064 H         3        0    0.0000
     63 H          75.3012  178.4630  106.6244 H         3        0    0.0000
     64 C          75.9734  179.1466  108.5652 C.3       4        0    0.0000
     65 C          75.6801  177.8108  109.2632 C.3       4        0    0.0000
     66 H          76.9176  179.5390  108.9640 H         4        0    0.0000
     67 H          75.2031  179.8929  108.7923 H         4        0    0.0000
     68 H          74.8617  177.2739  108.7693 H         4        0    0.0000
     69 H          76.5712  177.1765  109.1726 H         4        0    0.0000
     70 C          77.3638  176.2248  112.7597 C.3       5        0    0.0000
     71 C          76.6440  175.8513  111.4610 C.3       5        0    0.0000
     72 C          75.2921  176.5727  111.4877 C.3       5        0    0.0000
     73 C          75.3746  177.9461  110.7952 C.3       5        0    0.0000
     74 C          74.9916  176.6362  112.9907 C.3       5        0    0.0000
     75 C          76.3403  176.9682  113.6340 C.3       5        0    0.0000
     76 C          76.3850  176.5953  115.1202 C.3       5        0    0.0000
     77 H          77.7481  175.3195  113.2432 H         5        0    0.0000
     78 H          78.2239  176.8714  112.5514 H         5        0    0.0000
     79 H          76.4757  174.7670  111.4494 H         5        0    0.0000
     80 H          77.2441  176.0915  110.5774 H         5        0    0.0000
     81 H          74.5348  175.9624  110.9790 H         5        0    0.0000
     82 H          76.1780  178.5340  111.2554 H         5        0    0.0000
     83 H          74.4507  178.5174  110.9343 H         5        0    0.0000
     84 H          74.6386  175.6544  113.3324 H         5        0    0.0000
     85 H          74.2234  177.3698  113.2530 H         5        0    0.0000
     86 H          76.5170  178.0481  113.5313 H         5        0    0.0000
     87 H          76.4763  175.5093  115.2382 H         5        0    0.0000
     88 H          75.4427  176.8890  115.5977 H         5        0    0.0000
     89 C          79.3914  174.5804  117.7239 C.3       6        0    0.0000
     90 C          78.2769  175.0356  116.7781 C.3       6        0    0.0000
     91 C          78.0266  176.5171  117.0891 C.3       6        0    0.0000
     92 C          77.5597  177.2993  115.8583 C.3       6        0    0.0000
     93 C          79.3658  176.9819  117.6709 C.3       6        0    0.0000
     94 C          79.7681  175.8058  118.5669 C.3       6        0    0.0000
     95 C          81.2416  175.7955  118.9828 C.3       6        0    0.0000
     96 H          79.0627  173.7518  118.3603 H         6        0    0.0000
     97 H          80.2443  174.2201  117.1362 H         6        0    0.0000
     98 H          77.3654  174.4450  116.9202 H         6        0    0.0000
     99 H          78.5983  174.8923  115.7395 H         6        0    0.0000
    100 H          77.2619  176.5773  117.8772 H         6        0    0.0000
    101 H          78.3970  177.4064  115.1584 H         6        0    0.0000
    102 H          77.2555  178.3128  116.1447 H         6        0    0.0000
    103 H          79.2642  177.9124  118.2384 H         6        0    0.0000
    104 H          80.1053  177.1413  116.8761 H         6        0    0.0000
    105 H          79.1310  175.8139  119.4633 H         6        0    0.0000
    106 H          81.5122  176.7507  119.4478 H         6        0    0.0000
    107 H          81.8691  175.6897  118.0898 H         6        0    0.0000
    108 C          81.5720  174.6333  119.9591 C.3       7        0    0.0000
    109 C          82.4072  173.5088  119.3305 C.3       7        0    0.0000
    110 H          82.1515  175.0675  120.7839 H         7        0    0.0000
    111 H          80.6454  174.2446  120.3977 H         7        0    0.0000
    112 H          82.8658  173.8314  118.3884 H         7        0    0.0000
    113 H          83.2313  173.2728  120.0159 H         7        0    0.0000
    114 C          81.6127  172.1764  119.1023 C.3       8        0    0.0000
    115 C          81.8327  171.5480  117.7187 C.3       8        0    0.0000
    116 H          80.5474  172.4222  119.1990 H         8        0    0.0000
    117 H          81.8445  171.4660  119.9045 H         8        0    0.0000
    118 H          81.4949  172.2664  116.9609 H         8        0    0.0000
    119 H          82.8970  171.3676  117.5272 H         8        0    0.0000
    120 C          81.0221  170.2266  117.4829 C.3       9        0    0.0000
    121 C          81.8990  168.9998  117.1945 C.3       9        0    0.0000
    122 H          80.4576  170.0326  118.4040 H         9        0    0.0000
    123 H          80.2823  170.3836  116.6892 H         9        0    0.0000
    124 H          81.4334  168.3426  116.4507 H         9        0    0.0000
    125 H          82.8421  169.3508  116.7562 H         9        0    0.0000
    126 C          82.2743  168.1704  118.4712 C.3      10        0    0.0000
    127 C          81.7950  166.7123  118.4311 C.3      10        0    0.0000
    128 H          81.7905  168.6645  119.3234 H        10        0    0.0000
    129 H          83.3549  168.2304  118.6463 H        10        0    0.0000
    130 H          80.8310  166.6851  117.9071 H        10        0    0.0000
    131 H          82.4827  166.0821  117.8551 H        10        0    0.0000
    132 C          84.4582  167.3956  121.9218 C.3      11        0    0.0000
    133 C          83.7700  167.2146  120.5761 C.3      11        0    0.0000
    134 C          82.3703  166.7318  120.9703 C.3      11        0    0.0000
    135 C          81.5589  166.0801  119.8464 C.3      11        0    0.0000
    136 C          82.5791  165.8653  122.2276 C.3      11        0    0.0000
    137 C          84.0175  166.1522  122.7011 C.3      11        0    0.0000
    138 C          84.2111  166.2246  124.2188 C.3      11        0    0.0000
    139 H          85.5464  167.4530  121.8201 H        11        0    0.0000
    140 H          84.1113  168.3218  122.3932 H        11        0    0.0000
    141 H          83.7375  168.1474  120.0047 H        11        0    0.0000
    142 H          84.3105  166.4700  119.9813 H        11        0    0.0000
    143 H          81.8046  167.6203  121.2893 H        11        0    0.0000
    144 H          81.8040  165.0124  119.8006 H        11        0    0.0000
    145 H          80.4917  166.1482  120.0889 H        11        0    0.0000
    146 H          82.4656  164.7939  122.0300 H        11        0    0.0000
    147 H          81.8244  166.1223  122.9788 H        11        0    0.0000
    148 H          84.6394  165.3165  122.3463 H        11        0    0.0000
    149 H          85.0431  166.9031  124.4416 H        11        0    0.0000
    150 H          83.3156  166.6642  124.6738 H        11        0    0.0000
    151 C          87.9057  165.0269  126.4897 C.3      12        0    0.0000
    152 C          86.7369  165.6889  125.7553 C.3      12        0    0.0000
    153 C          85.9900  164.5617  125.0302 C.3      12        0    0.0000
    154 C          84.4921  164.8490  124.8949 C.3      12        0    0.0000
    155 C          86.3296  163.3241  125.8674 C.3      12        0    0.0000
    156 C          87.8163  163.5272  126.1778 C.3      12        0    0.0000
    157 C          88.3535  162.6619  127.3212 C.3      12        0    0.0000
    158 H          88.8672  165.4389  126.1652 H        12        0    0.0000
    159 H          87.8165  165.2190  127.5657 H        12        0    0.0000
    160 H          87.0874  166.4471  125.0467 H        12        0    0.0000
    161 H          86.0903  166.1967  126.4810 H        12        0    0.0000
    162 H          86.4352  164.4426  124.0317 H        12        0    0.0000
    163 H          84.0322  164.8493  125.8903 H        12        0    0.0000
    164 H          84.0026  164.0536  124.3208 H        12        0    0.0000
    165 H          86.1501  162.3956  125.3162 H        12        0    0.0000
    166 H          85.7356  163.2985  126.7896 H        12        0    0.0000
    167 H          88.3954  163.3324  125.2633 H        12        0    0.0000
    168 H          88.6053  163.2875  128.1856 H        12        0    0.0000
    169 H          89.2829  162.1758  127.0013 H        12        0    0.0000
    170 C          87.3450  161.5629  127.7546 C.3      13        0    0.0000
    171 C          87.8035  160.7380  128.9658 C.3      13        0    0.0000
    172 H          86.4136  162.0765  128.0254 H        13        0    0.0000
    173 H          87.1103  160.9187  126.8991 H        13        0    0.0000
    174 H          88.7762  160.2668  128.7822 H        13        0    0.0000
    175 H          87.9415  161.4234  129.8118 H        13        0    0.0000
    176 C          89.3179  157.4850  130.9349 C.3      14        0    0.0000
    177 C          88.8114  158.9170  130.7690 C.3      14        0    0.0000
    178 C          87.2833  158.8291  130.6139 C.3      14        0    0.0000
    179 C          86.7692  159.6532  129.4261 C.3      14        0    0.0000
    180 C          86.9868  157.3252  130.5076 C.3      14        0    0.0000
    181 C          88.0965  156.6464  131.3204 C.3      14        0    0.0000
    182 C          87.8577  156.6519  132.8414 C.3      14        0    0.0000
    183 H          89.7083  157.1329  129.9715 H        14        0    0.0000
    184 H          90.1362  157.4191  131.6588 H        14        0    0.0000
    185 H          89.2998  159.3983  129.9146 H        14        0    0.0000
    186 H          89.0572  159.5111  131.6571 H        14        0    0.0000
    187 H          86.8281  159.2114  131.5385 H        14        0    0.0000
    188 H          85.8177  160.1346  129.6799 H        14        0    0.0000
    189 H          86.5696  158.9840  128.5805 H        14        0    0.0000
    190 H          85.9816  157.0789  130.8633 H        14        0    0.0000
    191 H          87.0552  156.9965  129.4624 H        14        0    0.0000
    192 H          88.2360  155.6123  130.9801 H        14        0    0.0000
    193 H          86.9795  156.0540  133.1079 H        14        0    0.0000
    194 H          87.6499  157.6774  133.1703 H        14        0    0.0000
    195 C          89.0954  156.1362  133.6288 C.3      15        0    0.0000
    196 C          89.7156  157.1795  134.5692 C.3      15        0    0.0000
    197 H          88.7533  155.2896  134.2377 H        15        0    0.0000
    198 H          89.8392  155.7383  132.9285 H        15        0    0.0000
    199 H          89.2915  158.1754  134.3952 H        15        0    0.0000
    200 H          89.4580  156.9045  135.6000 H        15        0    0.0000
    201 C          93.8342  155.1568  136.0983 C.3      16        0    0.0000
    202 C          92.3993  155.6772  136.1665 C.3      16        0    0.0000
    203 C          91.9344  155.8806  134.7140 C.3      16        0    0.0000
    204 C          91.2803  157.2516  134.4975 C.3      16        0    0.0000
    205 C          93.1929  155.6462  133.8642 C.3      16        0    0.0000
    206 C          94.0309  154.6447  134.6691 C.3      16        0    0.0000
    207 C          93.5788  153.1806  134.5202 C.3      16        0    0.0000
    208 H          94.5233  155.9911  136.2812 H        16        0    0.0000
    209 H          94.0339  154.3992  136.8625 H        16        0    0.0000
    210 H          92.3541  156.5961  136.7613 H        16        0    0.0000
    211 H          91.7526  154.9422  136.6599 H        16        0    0.0000
    212 H          91.2027  155.0941  134.4811 H        16        0    0.0000
    213 H          91.5866  157.6716  133.5324 H        16        0    0.0000
    214 H          91.6308  157.9461  135.2705 H        16        0    0.0000
    215 H          92.9485  155.2914  132.8582 H        16        0    0.0000
    216 H          93.7581  156.5809  133.7547 H        16        0    0.0000
    217 H          95.0891  154.7265  134.3896 H        16        0    0.0000
    218 H          93.4465  152.9107  133.4669 H        16        0    0.0000
    219 H          92.6011  153.0542  135.0010 H        16        0    0.0000
    220 C          95.6944  153.8947  138.3623 C.3      17        0    0.0000
    221 C          94.8563  153.8714  137.0814 C.3      17        0    0.0000
    222 C          95.5583  152.8982  136.1251 C.3      17        0    0.0000
    223 C          94.5746  152.1910  135.1888 C.3      17        0    0.0000
    224 C          96.3194  151.9661  137.0737 C.3      17        0    0.0000
    225 C          96.8679  152.9348  138.1266 C.3      17        0    0.0000
    226 C          97.3435  152.2682  139.4206 C.3      17        0    0.0000
    227 H          96.0525  154.9049  138.5879 H        17        0    0.0000
    228 H          95.0762  153.5726  139.2089 H        17        0    0.0000
    229 H          94.7763  154.8694  136.6372 H        17        0    0.0000
    230 H          93.8385  153.5381  137.3171 H        17        0    0.0000
    231 H          96.2887  153.4677  135.5321 H        17        0    0.0000
    232 H          94.0006  151.4508  135.7589 H        17        0    0.0000
    233 H          95.1179  151.6399  134.4124 H        17        0    0.0000
    234 H          97.1199  151.4245  136.5598 H        17        0    0.0000
    235 H          95.6432  151.2320  137.5295 H        17        0    0.0000
    236 H          97.6942  153.5070  137.6803 H        17        0    0.0000
    237 H          96.8808  152.7510  140.2893 H        17        0    0.0000
    238 H          98.4266  152.4062  139.5218 H        17        0    0.0000
    239 C          97.8251  149.0851  142.6725 C.3      18        0    0.0000
    240 C          97.8517  150.3884  141.8703 C.3      18        0    0.0000
    241 C          97.9827  149.9909  140.3890 C.3      18        0    0.0000
    242 C          97.0346  150.7462  139.4494 C.3      18        0    0.0000
    243 C          97.7350  148.4791  140.3759 C.3      18        0    0.0000
    244 C          98.2945  147.9850  141.7143 C.3      18        0    0.0000
    245 C          99.8258  147.8197  141.6859 C.3      18        0    0.0000
    246 H          98.4208  149.1577  143.5874 H        18        0    0.0000
    247 H          96.7910  148.8792  142.9776 H        18        0    0.0000
    248 H          96.9485  150.9735  142.0757 H        18        0    0.0000
    249 H          98.7098  151.0022  142.1681 H        18        0    0.0000
    250 H          99.0209  150.1694  140.0745 H        18        0    0.0000
    251 H          97.1400  150.3504  138.4322 H        18        0    0.0000
    252 H          95.9920  150.5848  139.7466 H        18        0    0.0000
    253 H          98.2044  147.9941  139.5138 H        18        0    0.0000
    254 H          96.6587  148.2687  140.3293 H        18        0    0.0000
    255 H          97.8285  147.0266  141.9765 H        18        0    0.0000
    256 H         100.2927  148.5684  141.0364 H        18        0    0.0000
    257 H         100.0781  146.8365  141.2713 H        18        0    0.0000
    258 C          98.8999  146.0675  145.9334 C.3      19        0    0.0000
    259 C          98.9190  146.3000  144.4207 C.3      19        0    0.0000
    260 C          99.3812  147.7522  144.2044 C.3      19        0    0.0000
    261 C         100.4438  147.9173  143.1109 C.3      19        0    0.0000
    262 C          99.8847  148.2016  145.5797 C.3      19        0    0.0000
    263 C          98.9955  147.4540  146.5792 C.3      19        0    0.0000
    264 C          97.6243  148.1307  146.7663 C.3      19        0    0.0000
    265 H          98.0221  145.4942  146.2464 H        19        0    0.0000
    266 H          99.7839  145.4794  146.2116 H        19        0    0.0000
    267 H          99.5753  145.5679  143.9372 H        19        0    0.0000
    268 H          97.9157  146.1624  144.0009 H        19        0    0.0000
    269 H          98.5014  148.3595  143.9478 H        19        0    0.0000
    270 H         100.9235  148.8977  143.2157 H        19        0    0.0000
    271 H         101.2318  147.1641  143.2258 H        19        0    0.0000
    272 H          99.8370  149.2889  145.6987 H        19        0    0.0000
    273 H         100.9300  147.8981  145.7218 H        19        0    0.0000
    274 H          99.5059  147.3888  147.5486 H        19        0    0.0000
    275 H          96.8473  147.3934  146.9966 H        19        0    0.0000
    276 H          97.3303  148.6218  145.8310 H        19        0    0.0000
    277 C          97.6603  149.2083  147.8884 C.3      20        0    0.0000
    278 C          97.9833  150.6225  147.3852 C.3      20        0    0.0000
    279 H          96.6606  149.2280  148.3409 H        20        0    0.0000
    280 H          98.3552  148.8972  148.6772 H        20        0    0.0000
    281 H          97.5244  150.8125  146.4078 H        20        0    0.0000
    282 H          97.5401  151.3424  148.0851 H        20        0    0.0000
    283 C         100.0313  147.3086  147.1863 C.3      21        0    0.0000
    284 C          99.4572  148.5326  146.4744 C.3      21        0    0.0000
    285 C         100.3421  149.7277  146.8691 C.3      21        0    0.0000
    286 C          99.5173  150.9405  147.3195 C.3      21        0    0.0000
    287 C         101.2853  149.1760  147.9492 C.3      21        0    0.0000
    288 C         101.4535  147.6908  147.6044 C.3      21        0    0.0000
    289 C         102.4715  147.4151  146.4828 C.3      21        0    0.0000
    290 H          99.4328  147.1070  148.0839 H        21        0    0.0000
    291 H          99.9886  146.4112  146.5611 H        21        0    0.0000
    292 H          98.4050  148.6733  146.7451 H        21        0    0.0000
    293 H          99.4940  148.3909  145.3878 H        21        0    0.0000
    294 H         100.9409  150.0082  145.9910 H        21        0    0.0000
    295 H          99.6897  151.7893  146.6476 H        21        0    0.0000
    296 H          99.8490  151.2538  148.3167 H        21        0    0.0000
    297 H         102.2345  149.7197  147.9819 H        21        0    0.0000
    298 H         100.8220  149.2640  148.9406 H        21        0    0.0000
    299 H         101.7402  147.1247  148.4999 H        21        0    0.0000
    300 H         102.2508  148.0107  145.5905 H        21        0    0.0000
    301 H         102.4009  146.3627  146.1821 H        21        0    0.0000
    302 C         102.6077  148.0639  150.3427 C.3      22        0    0.0000
    303 C         103.6242  147.3513  149.4519 C.3      22        0    0.0000
    304 C         103.9938  148.3362  148.3293 C.3      22        0    0.0000
    305 C         103.9325  147.6871  146.9403 C.3      22        0    0.0000
    306 C         103.0280  149.5172  148.5115 C.3      22        0    0.0000
    307 C         102.7304  149.5544  150.0159 C.3      22        0    0.0000
    308 C         103.8245  150.2351  150.8586 C.3      22        0    0.0000
    309 H         101.6002  147.7179  150.0783 H        22        0    0.0000
    310 H         102.7593  147.8375  151.4028 H        22        0    0.0000
    311 H         103.2082  146.4108  149.0744 H        22        0    0.0000
    312 H         104.5215  147.0979  150.0287 H        22        0    0.0000
    313 H         105.0181  148.6894  148.5145 H        22        0    0.0000
    314 H         104.5022  146.7506  146.9321 H        22        0    0.0000
    315 H         104.4065  148.3524  146.2086 H        22        0    0.0000
    316 H         103.4491  150.4539  148.1335 H        22        0    0.0000
    317 H         102.0937  149.3330  147.9653 H        22        0    0.0000
    318 H         101.7701  150.0532  150.1993 H        22        0    0.0000
    319 H         103.7906  151.3243  150.7489 H        22        0    0.0000
    320 H         104.8094  149.9145  150.4980 H        22        0    0.0000
    321 C         101.4104  146.9912  151.9115 C.3      23        0    0.0000
    322 C         101.7980  148.3994  151.4537 C.3      23        0    0.0000
    323 C         102.4226  149.1020  152.6725 C.3      23        0    0.0000
    324 C         103.7190  149.8613  152.3643 C.3      23        0    0.0000
    325 C         102.6326  147.9798  153.6942 C.3      23        0    0.0000
    326 C         101.4751  147.0075  153.4426 C.3      23        0    0.0000
    327 C         100.1622  147.4746  154.0992 C.3      23        0    0.0000
    328 H         100.4375  146.6870  151.5139 H        23        0    0.0000
    329 H         102.1516  146.2785  151.5277 H        23        0    0.0000
    330 H         102.4816  148.3410  150.5996 H        23        0    0.0000
    331 H         100.9105  148.9502  151.1211 H        23        0    0.0000
    332 H         101.6822  149.8033  153.0832 H        23        0    0.0000
    333 H         103.7482  150.7847  152.9549 H        23        0    0.0000
    334 H         104.5907  149.2667  152.6608 H        23        0    0.0000
    335 H         102.6539  148.3589  154.7211 H        23        0    0.0000
    336 H         103.5864  147.4688  153.5097 H        23        0    0.0000
    337 H         101.7405  146.0132  153.8237 H        23        0    0.0000
    338 H          99.3069  147.3099  153.4345 H        23        0    0.0000
    339 H         100.2143  148.5531  154.2900 H        23        0    0.0000
    340 C          99.0236  143.1314  156.1873 C.3      24        0    0.0000
    341 C          98.6332  144.6016  156.1266 C.3      24        0    0.0000
    342 C          99.7923  145.2311  155.3471 C.3      24        0    0.0000
    343 C          99.9065  146.7547  155.4550 C.3      24        0    0.0000
    344 C         101.0444  144.4392  155.7720 C.3      24        0    0.0000
    345 C         100.5214  143.1885  156.5052 C.3      24        0    0.0000
    346 C         101.2990  141.8953  156.2422 C.3      24        0    0.0000
    347 H          98.4608  142.5903  156.9542 H        24        0    0.0000
    348 H          98.8253  142.6557  155.2206 H        24        0    0.0000
    349 H          97.6719  144.7489  155.6246 H        24        0    0.0000
    350 H          98.5521  145.0051  157.1420 H        24        0    0.0000
    351 H          99.6214  145.0051  154.2837 H        24        0    0.0000
    352 H          98.9850  147.1524  155.8966 H        24        0    0.0000
    353 H         100.7204  147.0051  156.1457 H        24        0    0.0000
    354 H         101.7011  145.0071  156.4398 H        24        0    0.0000
    355 H         101.6411  144.1951  154.8864 H        24        0    0.0000
    356 H         100.6112  143.3934  157.5827 H        24        0    0.0000
    357 H         100.6184  141.0416  156.3425 H        24        0    0.0000
    358 H         101.6538  141.8952  155.2047 H        24        0    0.0000
    359 C         104.5281  138.7930  155.8186 C.3      25        0    0.0000
    360 C         103.6259  140.0033  155.6324 C.3      25        0    0.0000
    361 C         103.1247  140.2787  157.0515 C.3      25        0    0.0000
    362 C         102.5181  141.6775  157.1881 C.3      25        0    0.0000
    363 C         104.3616  140.0245  157.9324 C.3      25        0    0.0000
    364 C         105.2937  139.1118  157.1091 C.3      25        0    0.0000
    365 C         105.8519  137.8946  157.8573 C.3      25        0    0.0000
    366 H         105.2020  138.6511  154.9679 H        25        0    0.0000
    367 H         103.9148  137.8905  155.9143 H        25        0    0.0000
    368 H         104.2035  140.8515  155.2449 H        25        0    0.0000
    369 H         102.8064  139.8001  154.9362 H        25        0    0.0000
    370 H         102.3649  139.5237  157.3009 H        25        0    0.0000
    371 H         102.2074  141.8555  158.2244 H        25        0    0.0000
    372 H         103.2826  142.4282  156.9555 H        25        0    0.0000
    373 H         104.8872  140.9608  158.1581 H        25        0    0.0000
    374 H         104.0691  139.5861  158.8923 H        25        0    0.0000
    375 H         106.1617  139.7249  156.8245 H        25        0    0.0000
    376 H         106.5075  137.3298  157.1839 H        25        0    0.0000
    377 H         105.0223  137.2275  158.1203 H        25        0    0.0000
    378 C         107.5144  136.2558  162.1627 C.3      26        0    0.0000
    379 C         107.9951  137.2683  161.1202 C.3      26        0    0.0000
    380 C         107.1987  136.9869  159.8335 C.3      26        0    0.0000
    381 C         106.6405  138.2426  159.1525 C.3      26        0    0.0000
    382 C         106.0935  136.0207  160.2719 C.3      26        0    0.0000
    383 C         106.7295  135.1893  161.3911 C.3      26        0    0.0000
    384 C         107.6208  134.0566  160.8476 C.3      26        0    0.0000
    385 H         108.3435  135.8535  162.7524 H        26        0    0.0000
    386 H         106.8385  136.7636  162.8628 H        26        0    0.0000
    387 H         107.8525  138.2880  161.4946 H        26        0    0.0000
    388 H         109.0671  137.1400  160.9299 H        26        0    0.0000
    389 H         107.8563  136.4565  159.1299 H        26        0    0.0000
    390 H         105.9641  138.7600  159.8433 H        26        0    0.0000
    391 H         107.4504  138.9425  158.9169 H        26        0    0.0000
    392 H         105.7310  135.4077  159.4403 H        26        0    0.0000
    393 H         105.2360  136.5774  160.6718 H        26        0    0.0000
    394 H         105.9420  134.7623  162.0251 H        26        0    0.0000
    395 H         108.5136  134.4573  160.3550 H        26        0    0.0000
    396 H         107.0668  133.4891  160.0905 H        26        0    0.0000
    397 C         108.0520  133.0709  161.9721 C.3      27        0    0.0000
    398 C         108.4127  131.6668  161.4663 C.3      27        0    0.0000
    399 H         108.9433  133.5014  162.4462 H        27        0    0.0000
    400 H         107.2753  133.0292  162.7447 H        27        0    0.0000
    401 H         107.6447  131.2778  160.7876 H        27        0    0.0000
    402 H         109.3385  131.7429  160.8819 H        27        0    0.0000
    403 C         107.6052  131.8717  166.0215 C.3      28        0    0.0000
    404 C         107.4694  131.9091  164.5070 C.3      28        0    0.0000
    405 C         108.7578  131.2375  164.0149 C.3      28        0    0.0000
    406 C         108.6831  130.6279  162.6093 C.3      28        0    0.0000
    407 C         109.1759  130.2649  165.1368 C.3      28        0    0.0000
    408 C         108.1665  130.4722  166.2808 C.3      28        0    0.0000
    409 C         108.7562  130.3383  167.6870 C.3      28        0    0.0000
    410 H         108.3035  132.6472  166.3594 H        28        0    0.0000
    411 H         106.6459  132.0323  166.5229 H        28        0    0.0000
    412 H         106.5737  131.3551  164.2060 H        28        0    0.0000
    413 H         107.3723  132.9323  164.1307 H        28        0    0.0000
    414 H         109.5313  132.0188  163.9727 H        28        0    0.0000
    415 H         109.6253  130.1090  162.3960 H        28        0    0.0000
    416 H         107.8942  129.8667  162.5904 H        28        0    0.0000
    417 H         110.1960  130.5088  165.4587 H        28        0    0.0000
    418 H         109.1868  129.2180  164.8158 H        28        0    0.0000
    419 H         107.3509  129.7453  166.1546 H        28        0    0.0000
    420 H         109.1100  131.3130  168.0432 H        28        0    0.0000
    421 H         107.9702  130.0164  168.3804 H        28        0    0.0000
    422 C         109.8934  127.1315  164.6384 C.3      29        0    0.0000
    423 C         109.1563  127.9700  165.6733 C.3      29        0    0.0000
    424 C         110.2940  128.6989  166.3957 C.3      29        0    0.0000
    425 C         109.9253  129.3156  167.7485 C.3      29        0    0.0000
    426 C         111.4665  127.6988  166.4189 C.3      29        0    0.0000
    427 C         111.0837  126.5802  165.4301 C.3      29        0    0.0000
    428 C         112.2338  126.0232  164.5856 C.3      29        0    0.0000
    429 H         109.2629  126.3333  164.2346 H        29        0    0.0000
    430 H         110.2119  127.7679  163.8053 H        29        0    0.0000
    431 H         108.4515  128.6663  165.2085 H        29        0    0.0000
    432 H         108.5931  127.3149  166.3470 H        29        0    0.0000
    433 H         110.6022  129.5320  165.7462 H        29        0    0.0000
    434 H         109.6555  128.5137  168.4459 H        29        0    0.0000
    435 H         110.8075  129.8139  168.1676 H        29        0    0.0000
    436 H         111.6386  127.2674  167.4108 H        29        0    0.0000
    437 H         112.3925  128.2139  166.1412 H        29        0    0.0000
    438 H         110.7044  125.7415  166.0334 H        29        0    0.0000
    439 H         111.9540  125.0322  164.2088 H        29        0    0.0000
    440 H         112.3776  126.6648  163.7082 H        29        0    0.0000
    441 C         112.6543  125.4644  168.9756 C.3      30        0    0.0000
    442 C         112.3480  125.3437  167.4907 C.3      30        0    0.0000
    443 C         113.4472  126.1892  166.8442 C.3      30        0    0.0000
    444 C         113.5884  125.9051  165.3468 C.3      30        0    0.0000
    445 C         114.6980  125.8656  167.6817 C.3      30        0    0.0000
    446 C         114.1820  125.3415  169.0377 C.3      30        0    0.0000
    447 C         114.8394  125.9625  170.2767 C.3      30        0    0.0000
    448 H         112.1573  124.6837  169.5600 H        30        0    0.0000
    449 H         112.3025  126.4339  169.3445 H        30        0    0.0000
    450 H         112.4157  124.2962  167.1728 H        30        0    0.0000
    451 H         111.3463  125.7114  167.2478 H        30        0    0.0000
    452 H         113.1989  127.2500  166.9943 H        30        0    0.0000
    453 H         114.3157  126.5923  164.8983 H        30        0    0.0000
    454 H         113.9842  124.8923  165.2059 H        30        0    0.0000
    455 H         115.3040  125.0852  167.2047 H        30        0    0.0000
    456 H         115.3380  126.7490  167.7780 H        30        0    0.0000
    457 H         114.4168  124.2670  169.0685 H        30        0    0.0000
    458 H         114.5710  125.3702  171.1595 H        30        0    0.0000
    459 H         114.4255  126.9657  170.4339 H        30        0    0.0000
    460 C         117.2751  129.5930  169.1181 C.3      31        0    0.0000
    461 C         116.2425  128.5913  169.6120 C.3      31        0    0.0000
    462 C         116.8991  127.2331  169.3344 C.3      31        0    0.0000
    463 C         116.3893  126.0706  170.1956 C.3      31        0    0.0000
    464 C         118.4198  127.4848  169.3954 C.3      31        0    0.0000
    465 C         118.5943  128.9986  169.6156 C.3      31        0    0.0000
    466 C         119.8062  129.6126  168.9105 C.3      31        0    0.0000
    467 H         117.2549  129.6505  168.0230 H        31        0    0.0000
    468 H         117.0964  130.5960  169.5174 H        31        0    0.0000
    469 H         116.0591  128.7510  170.6800 H        31        0    0.0000
    470 H         115.2870  128.6980  169.0888 H        31        0    0.0000
    471 H         116.6663  126.9709  168.2915 H        31        0    0.0000
    472 H         116.7861  125.1302  169.7948 H        31        0    0.0000
    473 H         116.7911  126.1737  171.2106 H        31        0    0.0000
    474 H         118.8724  127.1669  168.4479 H        31        0    0.0000
    475 H         118.9174  126.9187  170.1898 H        31        0    0.0000
    476 H         118.6681  129.1816  170.6976 H        31        0    0.0000
    477 H         119.7152  129.4885  167.8249 H        31        0    0.0000
    478 H         119.8289  130.6919  169.1029 H        31        0    0.0000
    479 C         121.1501  128.9926  169.3858 C.3      32        0    0.0000
    480 C         122.2207  130.0303  169.7528 C.3      32        0    0.0000
    481 H         120.9266  128.4020  170.2835 H        32        0    0.0000
    482 H         121.5194  128.2883  168.6312 H        32        0    0.0000
    483 H         122.7843  130.3515  168.8690 H        32        0    0.0000
    484 H         121.7117  130.9217  170.1413 H        32        0    0.0000
    485 C         125.8532  131.9854  171.6394 C.3      33        0    0.0000
    486 C         124.5575  131.7241  170.8729 C.3      33        0    0.0000
    487 C         123.7442  130.7219  171.7103 C.3      33        0    0.0000
    488 C         123.2139  129.5537  170.8686 C.3      33        0    0.0000
    489 C         124.6925  130.2979  172.8424 C.3      33        0    0.0000
    490 C         125.5988  131.5138  173.0734 C.3      33        0    0.0000
    491 C         124.9621  132.6207  173.9335 C.3      33        0    0.0000
    492 H         126.6551  131.3805  171.1971 H        33        0    0.0000
    493 H         126.1653  133.0325  171.5752 H        33        0    0.0000
    494 H         124.7776  131.3575  169.8643 H        33        0    0.0000
    495 H         123.9896  132.6552  170.7602 H        33        0    0.0000
    496 H         122.8935  131.2618  172.1494 H        33        0    0.0000
    497 H         122.7206  128.8147  171.5107 H        33        0    0.0000
    498 H         124.0563  129.0426  170.3872 H        33        0    0.0000
    499 H         124.1479  129.9911  173.7407 H        33        0    0.0000
    500 H         125.3083  129.4465  172.5247 H        33        0    0.0000
    501 H         126.5448  131.1987  173.5321 H        33        0    0.0000
    502 H         124.0103  132.9566  173.5081 H        33        0    0.0000
    503 H         125.6252  133.4943  173.9460 H        33        0    0.0000
    504 C         125.8322  128.6227  174.6916 C.3      34        0    0.0000
    505 C         125.0042  129.8579  174.3719 C.3      34        0    0.0000
    506 C         125.1561  130.7086  175.6345 C.3      34        0    0.0000
    507 C         124.7414  132.1638  175.4034 C.3      34        0    0.0000
    508 C         126.6311  130.5146  176.0313 C.3      34        0    0.0000
    509 C         127.0824  129.1953  175.3715 C.3      34        0    0.0000
    510 C         127.8319  128.2225  176.2906 C.3      34        0    0.0000
    511 H         126.0813  128.0534  173.7906 H        34        0    0.0000
    512 H         125.2647  127.9640  175.3578 H        34        0    0.0000
    513 H         125.4147  130.3738  173.4953 H        34        0    0.0000
    514 H         123.9592  129.6082  174.1644 H        34        0    0.0000
    515 H         124.5281  130.2693  176.4233 H        34        0    0.0000
    516 H         123.6873  132.3038  175.6707 H        34        0    0.0000
    517 H         125.3232  132.8159  176.0657 H        34        0    0.0000
    518 H         127.2548  131.3343  175.6533 H        34        0    0.0000
    519 H         126.7408  130.5096  177.1208 H        34        0    0.0000
    520 H         127.7860  129.4695  174.5714 H        34        0    0.0000
    521 H         128.4245  128.7966  177.0128 H        34        0    0.0000
    522 H         128.5437  127.6431  175.6906 H        34        0    0.0000
    523 C         128.7208  126.3331  180.2517 C.3      35        0    0.0000
    524 C         128.6233  127.1338  178.9505 C.3      35        0    0.0000
    525 C         127.7023  126.3333  178.0203 C.3      35        0    0.0000
    526 C         126.9138  127.2342  177.0657 C.3      35        0    0.0000
    527 C         126.8391  125.5258  178.9954 C.3      35        0    0.0000
    528 C         127.8548  125.0821  180.0535 C.3      35        0    0.0000
    529 C         127.2362  124.5889  181.3644 C.3      35        0    0.0000
    530 H         129.7576  126.0613  180.4776 H        35        0    0.0000
    531 H         128.3565  126.9454  181.0853 H        35        0    0.0000
    532 H         129.6090  127.2806  178.4960 H        35        0    0.0000
    533 H         128.2125  128.1280  179.1636 H        35        0    0.0000
    534 H         128.3237  125.6350  177.4409 H        35        0    0.0000
    535 H         126.1811  127.8152  177.6385 H        35        0    0.0000
    536 H         126.3463  126.6266  176.3511 H        35        0    0.0000
    537 H         126.3590  124.6723  178.5062 H        35        0    0.0000
    538 H         126.0570  126.1536  179.4404 H        35        0    0.0000
    539 H         128.4874  124.2922  179.6230 H        35        0    0.0000
    540 H         126.5808  123.7304  181.1763 H        35        0    0.0000
    541 H         126.6065  125.3805  181.7879 H        35        0    0.0000
    542 C         131.6794  123.6740  180.7336 C.3      36        0    0.0000
    543 C         130.1587  123.6154  180.6954 C.3      36        0    0.0000
    544 C         129.7548  124.4042  181.9453 C.3      36        0    0.0000
    545 C         128.3115  124.1979  182.4150 C.3      36        0    0.0000
    546 C         130.8444  124.0944  182.9903 C.3      36        0    0.0000
    547 C         131.9939  123.4244  182.2123 C.3      36        0    0.0000
    548 C         133.4071  123.8119  182.6584 C.3      36        0    0.0000
    549 H         132.1340  122.9200  180.0836 H        36        0    0.0000
    550 H         132.0202  124.6605  180.4006 H        36        0    0.0000
    551 H         129.7554  124.0600  179.7803 H        36        0    0.0000
    552 H         129.8273  122.5722  180.7414 H        36        0    0.0000
    553 H         129.8521  125.4713  181.6942 H        36        0    0.0000
    554 H         128.1709  123.1454  182.6881 H        36        0    0.0000
    555 H         128.1437  124.7848  183.3259 H        36        0    0.0000
    556 H         130.4966  123.4212  183.7813 H        36        0    0.0000
    557 H         131.1500  125.0219  183.4865 H        36        0    0.0000
    558 H         131.8994  122.3409  182.3800 H        36        0    0.0000
    559 H         134.1257  123.1074  182.2230 H        36        0    0.0000
    560 H         133.6518  124.8014  182.2545 H        36        0    0.0000
    561 C         137.0968  124.5769  185.2242 C.3      37        0    0.0000
    562 C         136.1367  124.3194  184.0603 C.3      37        0    0.0000
    563 C         135.0224  123.4066  184.6026 C.3      37        0    0.0000
    564 C         133.6060  123.8388  184.2037 C.3      37        0    0.0000
    565 C         135.2285  123.4129  186.1207 C.3      37        0    0.0000
    566 C         136.7439  123.5479  186.3038 C.3      37        0    0.0000
    567 C         137.4792  122.2060  186.1246 C.3      37        0    0.0000
    568 H         138.1428  124.5410  184.9051 H        37        0    0.0000
    569 H         136.9145  125.5859  185.6158 H        37        0    0.0000
    570 H         135.7563  125.2701  183.6709 H        37        0    0.0000
    571 H         136.6603  123.8187  183.2375 H        37        0    0.0000
    572 H         135.2047  122.3856  184.2377 H        37        0    0.0000
    573 H         132.8767  123.1591  184.6603 H        37        0    0.0000
    574 H         133.3893  124.8421  184.5882 H        37        0    0.0000
    575 H         134.8215  122.5132  186.5936 H        37        0    0.0000
    576 H         134.7270  124.2796  186.5707 H        37        0    0.0000
    577 H         136.9596  123.9521  187.3009 H        37        0    0.0000
    578 H         137.0150  121.6026  185.3366 H        37        0    0.0000
    579 H         137.4095  121.6262  187.0526 H        37        0    0.0000
    580 C         139.6346  119.2168  183.8663 C.3      38        0    0.0000
    581 C         138.7755  120.0143  184.8356 C.3      38        0    0.0000
    582 C         139.6988  121.1573  185.2762 C.3      38        0    0.0000
    583 C         138.9859  122.4126  185.7947 C.3      38        0    0.0000
    584 C         140.6700  121.3860  184.0997 C.3      38        0    0.0000
    585 C         140.3360  120.3069  183.0534 C.3      38        0    0.0000
    586 C         141.5435  119.7660  182.2838 C.3      38        0    0.0000
    587 H         140.3597  118.6049  184.4166 H        38        0    0.0000
    588 H         139.0337  118.5532  183.2370 H        38        0    0.0000
    589 H         137.8828  120.3808  184.3174 H        38        0    0.0000
    590 H         138.4444  119.4064  185.6835 H        38        0    0.0000
    591 H         140.3038  120.7771  186.1128 H        38        0    0.0000
    592 H         139.4978  122.7648  186.6982 H        38        0    0.0000
    593 H         139.0794  123.2113  185.0493 H        38        0    0.0000
    594 H         141.7003  121.2819  184.4621 H        38        0    0.0000
    595 H         140.5874  122.3867  183.6628 H        38        0    0.0000
    596 H         139.6089  120.7295  182.3448 H        38        0    0.0000
    597 H         141.3927  119.8936  181.2052 H        38        0    0.0000
    598 H         142.4330  120.3500  182.5483 H        38        0    0.0000
    599 C         145.2106  117.5995  181.0020 C.3      39        0    0.0000
    600 C         144.3656  117.9463  182.2198 C.3      39        0    0.0000
    601 C         142.9402  117.6504  181.7422 C.3      39        0    0.0000
    602 C         141.8220  118.2672  182.5880 C.3      39        0    0.0000
    603 C         142.9269  118.0259  180.2475 C.3      39        0    0.0000
    604 C         144.4045  118.1987  179.8449 C.3      39        0    0.0000
    605 C         144.7736  117.6836  178.4504 C.3      39        0    0.0000
    606 H         146.2162  118.0264  181.0671 H        39        0    0.0000
    607 H         145.3078  116.5116  180.9167 H        39        0    0.0000
    608 H         144.6401  117.3455  183.0923 H        39        0    0.0000
    609 H         144.5032  119.0024  182.4770 H        39        0    0.0000
    610 H         142.8062  116.5593  181.7950 H        39        0    0.0000
    611 H         140.8982  117.6981  182.4301 H        39        0    0.0000
    612 H         142.0774  118.1648  183.6494 H        39        0    0.0000
    613 H         142.3818  118.9545  180.0467 H        39        0    0.0000
    614 H         142.4193  117.2404  179.6772 H        39        0    0.0000
    615 H         144.6067  119.2805  179.8419 H        39        0    0.0000
    616 H         143.9208  117.8305  177.7771 H        39        0    0.0000
    617 H         145.5974  118.2874  178.0517 H        39        0    0.0000
    618 C         145.8919  114.8334  175.0265 C.3      40        0    0.0000
    619 C         145.4622  116.0503  175.8495 C.3      40        0    0.0000
    620 C         144.7570  115.5059  177.1047 C.3      40        0    0.0000
    621 C         145.1892  116.1823  178.4116 C.3      40        0    0.0000
    622 C         145.0646  114.0051  177.0951 C.3      40        0    0.0000
    623 C         145.1348  113.6352  175.6096 C.3      40        0    0.0000
    624 C         143.7397  113.4392  174.9864 C.3      40        0    0.0000
    625 H         145.7220  114.9848  173.9563 H        40        0    0.0000
    626 H         146.9700  114.6781  175.1621 H        40        0    0.0000
    627 H         146.3344  116.6697  176.0862 H        40        0    0.0000
    628 H         144.7684  116.6743  175.2741 H        40        0    0.0000
    629 H         143.6728  115.6329  176.9737 H        40        0    0.0000
    630 H         144.7190  115.6691  179.2589 H        40        0    0.0000
    631 H         146.2731  116.0937  178.5483 H        40        0    0.0000
    632 H         144.3114  113.4286  177.6417 H        40        0    0.0000
    633 H         146.0368  113.8114  177.5666 H        40        0    0.0000
    634 H         145.7221  112.7164  175.4865 H        40        0    0.0000
    635 H         143.6868  113.8841  173.9866 H        40        0    0.0000
    636 H         142.9907  113.9507  175.6027 H        40        0    0.0000
    637 C         146.6621  111.4464  173.2979 C.3      41        0    0.0000
    638 C         145.2496  112.0189  173.1565 C.3      41        0    0.0000
    639 C         144.3305  111.1426  174.0265 C.3      41        0    0.0000
    640 C         143.3512  111.9346  174.9016 C.3      41        0    0.0000
    641 C         145.2925  110.2860  174.8558 C.3      41        0    0.0000
    642 C         146.4997  110.0636  173.9384 C.3      41        0    0.0000
    643 C         146.2567  108.9441  172.9085 C.3      41        0    0.0000
    644 H         147.1927  111.4304  172.3412 H        41        0    0.0000
    645 H         147.2382  112.0908  173.9744 H        41        0    0.0000
    646 H         145.2406  113.0728  173.4555 H        41        0    0.0000
    647 H         144.9235  111.9761  172.1107 H        41        0    0.0000
    648 H         143.7630  110.4739  173.3636 H        41        0    0.0000
    649 H         142.3427  111.8590  174.4779 H        41        0    0.0000
    650 H         143.3054  111.5059  175.9093 H        41        0    0.0000
    651 H         144.8293  109.3497  175.1836 H        41        0    0.0000
    652 H         145.6112  110.8305  175.7542 H        41        0    0.0000
    653 H         147.3815  109.8179  174.5437 H        41        0    0.0000
    654 H         145.7083  109.3198  172.0376 H        41        0    0.0000
    655 H         145.6371  108.1611  173.3616 H        41        0    0.0000
    656 C         151.0553  109.1505  171.5829 C.3      42        0    0.0000
    657 C         149.5911  109.2219  171.1522 C.3      42        0    0.0000
    658 C         148.7550  109.2922  172.4418 C.3      42        0    0.0000
    659 C         147.5896  108.2942  172.4365 C.3      42        0    0.0000
    660 C         149.7665  109.0675  173.5764 C.3      42        0    0.0000
    661 C         151.0916  109.6226  173.0387 C.3      42        0    0.0000
    662 C         151.2211  111.1535  173.1389 C.3      42        0    0.0000
    663 H         151.3891  108.1061  171.5335 H        42        0    0.0000
    664 H         151.7075  109.7299  170.9219 H        42        0    0.0000
    665 H         149.3352  108.3613  170.5244 H        42        0    0.0000
    666 H         149.4164  110.1221  170.5513 H        42        0    0.0000
    667 H         148.3529  110.3116  172.5276 H        42        0    0.0000
    668 H         147.8242  107.4313  173.0704 H        42        0    0.0000
    669 H         147.4465  107.9101  171.4193 H        42        0    0.0000
    670 H         149.4487  109.5427  174.5096 H        42        0    0.0000
    671 H         149.8819  107.9944  173.7768 H        42        0    0.0000
    672 H         151.9368  109.1535  173.5584 H        42        0    0.0000
    673 H         150.7101  111.5382  174.0280 H        42        0    0.0000
    674 H         150.7317  111.6145  172.2724 H        42        0    0.0000
    675 C         152.7061  111.6142  173.1535 C.3      43        0    0.0000
    676 C         153.2851  111.8977  171.7600 C.3      43        0    0.0000
    677 H         152.7434  112.5452  173.7335 H        43        0    0.0000
    678 H         153.3148  110.8819  173.6968 H        43        0    0.0000
    679 H         152.5282  112.3278  171.0936 H        43        0    0.0000
    680 H         154.0747  112.6526  171.8665 H        43        0    0.0000
    681 C         156.9599  108.6060  172.1561 C.3      44        0    0.0000
    682 C         156.3276  109.6548  171.2519 C.3      44        0    0.0000
    683 C         154.9880  109.9364  171.9402 C.3      44        0    0.0000
    684 C         153.9422  110.6487  171.0768 C.3      44        0    0.0000
    685 C         154.5475  108.5862  172.5387 C.3      44        0    0.0000
    686 C         155.7863  107.6719  172.4687 C.3      44        0    0.0000
    687 C         155.9884  106.7408  173.6680 C.3      44        0    0.0000
    688 H         157.7825  108.0811  171.6603 H        44        0    0.0000
    689 H         157.3566  109.0854  173.0578 H        44        0    0.0000
    690 H         156.9467  110.5538  171.1735 H        44        0    0.0000
    691 H         156.1953  109.2440  170.2449 H        44        0    0.0000
    692 H         155.1997  110.6042  172.7889 H        44        0    0.0000
    693 H         154.4097  110.9663  170.1373 H        44        0    0.0000
    694 H         153.1521  109.9366  170.8105 H        44        0    0.0000
    695 H         153.7209  108.1255  171.9872 H        44        0    0.0000
    696 H         154.1886  108.7392  173.5622 H        44        0    0.0000
    697 H         155.6514  107.0240  171.5894 H        44        0    0.0000
    698 H         155.0529  106.6812  174.2367 H        44        0    0.0000
    699 H         156.2009  105.7285  173.3041 H        44        0    0.0000
    700 C         158.0986  103.8046  176.0184 C.3      45        0    0.0000
    701 C         157.1317  104.7055  175.2455 C.3      45        0    0.0000
    702 C         157.4023  106.1380  175.7236 C.3      45        0    0.0000
    703 C         157.1329  107.1768  174.6314 C.3      45        0    0.0000
    704 C         158.8569  106.0767  176.2017 C.3      45        0    0.0000
    705 C         158.9132  104.7305  176.9314 C.3      45        0    0.0000
    706 C         160.3273  104.2008  177.1849 C.3      45        0    0.0000
    707 H         157.5618  103.0497  176.6029 H        45        0    0.0000
    708 H         158.7435  103.2697  175.3110 H        45        0    0.0000
    709 H         156.0893  104.4215  175.4260 H        45        0    0.0000
    710 H         157.3155  104.6000  174.1696 H        45        0    0.0000
    711 H         156.7562  106.3376  176.5910 H        45        0    0.0000
    712 H         158.0457  107.3281  174.0427 H        45        0    0.0000
    713 H         156.8827  108.1450  175.0808 H        45        0    0.0000
    714 H         159.1051  106.9118  176.8644 H        45        0    0.0000
    715 H         159.5507  106.0923  175.3519 H        45        0    0.0000
    716 H         158.3777  104.8269  177.8872 H        45        0    0.0000
    717 H         160.9546  104.3519  176.2986 H        45        0    0.0000
    718 H         160.2828  103.1192  177.3599 H        45        0    0.0000
    719 C         163.9700  103.7156  180.4594 C.3      46        0    0.0000
    720 C         162.9717  104.8029  180.0927 C.3      46        0    0.0000
    721 C         162.3856  104.3172  178.7609 C.3      46        0    0.0000
    722 C         160.9986  104.8728  178.4140 C.3      46        0    0.0000
    723 C         162.4929  102.7787  178.7944 C.3      46        0    0.0000
    724 C         163.2212  102.4292  180.1052 C.3      46        0    0.0000
    725 C         164.1582  101.2222  180.0148 C.3      46        0    0.0000
    726 H         164.8826  103.8202  179.8601 H        46        0    0.0000
    727 H         164.2482  103.7547  181.5170 H        46        0    0.0000
    728 H         162.2097  104.8796  180.8759 H        46        0    0.0000
    729 H         163.4513  105.7820  179.9954 H        46        0    0.0000
    730 H         163.0645  104.6617  177.9666 H        46        0    0.0000
    731 H         160.3400  104.7530  179.2825 H        46        0    0.0000
    732 H         161.0804  105.9503  178.2283 H        46        0    0.0000
    733 H         163.0648  102.4418  177.9208 H        46        0    0.0000
    734 H         161.5196  102.2791  178.7479 H        46        0    0.0000
    735 H         162.4630  102.2474  180.8809 H        46        0    0.0000
    736 H         163.8802  100.5906  179.1627 H        46        0    0.0000
    737 H         165.1808  101.5707  179.8276 H        46        0    0.0000
    738 C         167.7247  100.7573  182.5485 C.3      47        0    0.0000
    739 C         166.6474  101.0324  181.5087 C.3      47        0    0.0000
    740 C         165.3647  100.5901  182.2204 C.3      47        0    0.0000
    741 C         164.1527  100.3645  181.3112 C.3      47        0    0.0000
    742 C         165.7771   99.3856  183.0889 C.3      47        0    0.0000
    743 C         167.3183   99.3901  183.1081 C.3      47        0    0.0000
    744 C         167.9631   99.0084  184.4441 C.3      47        0    0.0000
    745 H         168.7253  100.7394  182.1056 H        47        0    0.0000
    746 H         167.7063  101.5388  183.3160 H        47        0    0.0000
    747 H         166.6158  102.0882  181.2223 H        47        0    0.0000
    748 H         166.8435  100.4411  180.6074 H        47        0    0.0000
    749 H         165.0891  101.3995  182.9132 H        47        0    0.0000
    750 H         164.1066   99.3051  181.0325 H        47        0    0.0000
    751 H         163.2372  100.5824  181.8738 H        47        0    0.0000
    752 H         165.4188   98.4305  182.6900 H        47        0    0.0000
    753 H         165.3386   99.4871  184.0875 H        47        0    0.0000
    754 H         167.6455   98.6359  182.3765 H        47        0    0.0000
    755 H         169.0296   98.8112  184.2834 H        47        0    0.0000
    756 H         167.9004   99.8622  185.1292 H        47        0    0.0000
    757 C         169.0711   97.0182  188.4091 C.3      48        0    0.0000
    758 C         168.7565   97.9874  187.2798 C.3      48        0    0.0000
    759 C         168.2250   97.0780  186.1647 C.3      48        0    0.0000
    760 C         167.3224   97.7660  185.1326 C.3      48        0    0.0000
    761 C         167.6040   95.8604  186.8798 C.3      48        0    0.0000
    762 C         167.8778   96.0609  188.3816 C.3      48        0    0.0000
    763 C         168.1538   94.7720  189.1597 C.3      48        0    0.0000
    764 H         170.0090   96.4877  188.2041 H        48        0    0.0000
    765 H         169.1698   97.5291  189.3718 H        48        0    0.0000
    766 H         168.0057   98.7104  187.6164 H        48        0    0.0000
    767 H         169.6422   98.5473  186.9634 H        48        0    0.0000
    768 H         169.0992   96.7043  185.6109 H        48        0    0.0000
    769 H         167.0480   97.0389  184.3591 H        48        0    0.0000
    770 H         166.3896   98.0727  185.6205 H        48        0    0.0000
    771 H         168.0825   94.9459  186.5079 H        48        0    0.0000
    772 H         166.5302   95.7544  186.6934 H        48        0    0.0000
    773 H         167.0123   96.5769  188.8222 H        48        0    0.0000
    774 H         167.5744   94.7607  190.0905 H        48        0    0.0000
    775 H         167.8161   93.9125  188.5685 H        48        0    0.0000
    776 C         169.8547   92.9741  192.3453 C.3      49        0    0.0000
    777 C         169.0903   94.2375  191.9408 C.3      49        0    0.0000
    778 C         169.9817   94.9875  190.9449 C.3      49        0    0.0000
    779 C         169.6610   94.5874  189.4924 C.3      49        0    0.0000
    780 C         171.3884   94.5969  191.4156 C.3      49        0    0.0000
    781 C         171.2728   93.1114  191.7666 C.3      49        0    0.0000
    782 C         172.3902   92.6457  192.7069 C.3      49        0    0.0000
    783 H         169.8558   92.8759  193.4368 H        49        0    0.0000
    784 H         169.3654   92.0812  191.9397 H        49        0    0.0000
    785 H         168.9396   94.8600  192.8319 H        49        0    0.0000
    786 H         168.0978   94.0047  191.5416 H        49        0    0.0000
    787 H         169.8354   96.0696  191.0566 H        49        0    0.0000
    788 H         169.9191   93.5318  189.3442 H        49        0    0.0000
    789 H         170.2651   95.1594  188.7802 H        49        0    0.0000
    790 H         171.6474   95.1798  192.3092 H        49        0    0.0000
    791 H         172.1666   94.7798  190.6686 H        49        0    0.0000
    792 H         171.3242   92.5301  190.8353 H        49        0    0.0000
    793 H         172.6060   91.5831  192.5458 H        49        0    0.0000
    794 H         172.0576   92.7486  193.7466 H        49        0    0.0000
    795 C         173.6918   93.4758  192.5145 C.3      50        0    0.0000
    796 C         174.8284   93.0842  193.4695 C.3      50        0    0.0000
    797 H         174.0332   93.2960  191.4870 H        50        0    0.0000
    798 H         173.4617   94.5454  192.5855 H        50        0    0.0000
    799 H         175.7143   92.7476  192.9183 H        50        0    0.0000
    800 H         175.1280   93.9805  194.0277 H        50        0    0.0000
    801 C         177.3295   90.0950  196.0383 C.3      51        0    0.0000
    802 C         175.8977   90.1174  195.5254 C.3      51        0    0.0000
    803 C         175.5507   91.6113  195.4961 C.3      51        0    0.0000
    804 C         174.4245   92.0035  194.5314 C.3      51        0    0.0000
    805 C         176.8901   92.3465  195.2838 C.3      51        0    0.0000
    806 C         177.9803   91.2593  195.2887 C.3      51        0    0.0000
    807 C         179.3064   91.6852  195.9236 C.3      51        0    0.0000
    808 H         177.3472   90.2626  197.1221 H        51        0    0.0000
    809 H         177.8240   89.1411  195.8309 H        51        0    0.0000
    810 H         175.8588   89.6646  194.5287 H        51        0    0.0000
    811 H         175.2219   89.5534  196.1758 H        51        0    0.0000
    812 H         175.2020   91.8799  196.5045 H        51        0    0.0000
    813 H         174.0787   91.1061  194.0046 H        51        0    0.0000
    814 H         173.5709   92.3765  195.1098 H        51        0    0.0000
    815 H         177.0387   93.0611  196.1029 H        51        0    0.0000
    816 H         176.9217   92.9214  194.3523 H        51        0    0.0000
    817 H         178.1557   90.9447  194.2496 H        51        0    0.0000
    818 H         180.1481   91.2878  195.3442 H        51        0    0.0000
    819 H         179.3896   92.7781  195.8901 H        51        0    0.0000
    820 C         181.7930   92.7422  199.1070 C.3      52        0    0.0000
    821 C         181.7863   92.1316  197.7030 C.3      52        0    0.0000
    822 C         180.8943   90.8872  197.7719 C.3      52        0    0.0000
    823 C         179.4368   91.2199  197.4011 C.3      52        0    0.0000
    824 C         181.0922   90.4301  199.2228 C.3      52        0    0.0000
    825 C         181.0992   91.7291  200.0327 C.3      52        0    0.0000
    826 C         181.7671   91.5590  201.4019 C.3      52        0    0.0000
    827 H         182.8238   92.9522  199.4142 H        52        0    0.0000
    828 H         181.2514   93.6950  199.1154 H        52        0    0.0000
    829 H         182.8092   91.8299  197.4439 H        52        0    0.0000
    830 H         181.4637   92.8527  196.9450 H        52        0    0.0000
    831 H         181.2710   90.1209  197.0823 H        52        0    0.0000
    832 H         179.0755   92.0277  198.0491 H        52        0    0.0000
    833 H         178.7773   90.3627  197.5737 H        52        0    0.0000
    834 H         182.0599   89.9198  199.3141 H        52        0    0.0000
    835 H         180.3219   89.7362  199.5722 H        52        0    0.0000
    836 H         180.0588   92.0513  200.1803 H        52        0    0.0000
    837 H         181.0575   91.1359  202.1224 H        52        0    0.0000
    838 H         182.0633   92.5419  201.7870 H        52        0    0.0000
    839 C         183.0292   90.6530  201.3214 C.3      53        0    0.0000
    840 C         183.8779   90.6503  202.6009 C.3      53        0    0.0000
    841 H         183.6479   91.0435  200.5033 H        53        0    0.0000
    842 H         182.7363   89.6361  201.0349 H        53        0    0.0000
    843 H         183.2148   90.4359  203.4488 H        53        0    0.0000
    844 H         184.6283   89.8513  202.5801 H        53        0    0.0000
    845 C         183.3419   94.0943  205.8082 C.3      54        0    0.0000
    846 C         183.9881   92.8412  205.2376 C.3      54        0    0.0000
    847 C         183.6932   92.9547  203.7406 C.3      54        0    0.0000
    848 C         184.5743   92.0216  202.9064 C.3      54        0    0.0000
    849 C         183.8806   94.4537  203.4432 C.3      54        0    0.0000
    850 C         183.7115   95.1826  204.7922 C.3      54        0    0.0000
    851 C         182.7802   96.4013  204.7696 C.3      54        0    0.0000
    852 H         183.7156   94.3267  206.8103 H        54        0    0.0000
    853 H         182.2588   93.9473  205.8804 H        54        0    0.0000
    854 H         185.0679   92.8495  205.4301 H        54        0    0.0000
    855 H         183.5692   91.9293  205.6740 H        54        0    0.0000
    856 H         182.6351   92.7024  203.5780 H        54        0    0.0000
    857 H         184.8492   92.5053  201.9616 H        54        0    0.0000
    858 H         185.5097   91.8290  203.4451 H        54        0    0.0000
    859 H         184.8846   94.6579  203.0508 H        54        0    0.0000
    860 H         183.1685   94.7888  202.6817 H        54        0    0.0000
    861 H         184.7067   95.5588  205.0723 H        54        0    0.0000
    862 H         182.9185   96.9750  205.6937 H        54        0    0.0000
    863 H         181.7400   96.0542  204.7683 H        54        0    0.0000
    864 C         181.4590  100.7376  204.2735 C.3      55        0    0.0000
    865 C         181.9679   99.3937  204.7721 C.3      55        0    0.0000
    866 C         182.0224   98.5369  203.5010 C.3      55        0    0.0000
    867 C         182.9905   97.3481  203.5533 C.3      55        0    0.0000
    868 C         182.2518   99.5267  202.3403 C.3      55        0    0.0000
    869 C         182.2310  100.9330  202.9670 C.3      55        0    0.0000
    870 C         181.6078  102.0177  202.0850 C.3      55        0    0.0000
    871 H         180.3784  100.6907  204.0915 H        55        0    0.0000
    872 H         181.6511  101.5405  204.9917 H        55        0    0.0000
    873 H         182.9562   99.5223  205.2265 H        55        0    0.0000
    874 H         181.3055   98.9613  205.5286 H        55        0    0.0000
    875 H         181.0179   98.1119  203.3568 H        55        0    0.0000
    876 H         182.8860   96.7635  202.6315 H        55        0    0.0000
    877 H         184.0199   97.7250  203.5711 H        55        0    0.0000
    878 H         181.4458   99.4079  201.6055 H        55        0    0.0000
    879 H         183.1934   99.3544  201.8085 H        55        0    0.0000
    880 H         183.2650  101.2126  203.2166 H        55        0    0.0000
    881 H         182.0961  102.0340  201.1035 H        55        0    0.0000
    882 H         180.5526  101.7783  201.9074 H        55        0    0.0000
    883 C         181.6978  103.4314  202.7252 C.3      56        0    0.0000
    884 C         180.9299  104.5151  201.9548 C.3      56        0    0.0000
    885 H         182.7599  103.7080  202.7342 H        56        0    0.0000
    886 H         181.3774  103.3838  203.7725 H        56        0    0.0000
    887 H         180.8716  105.4079  202.5905 H        56        0    0.0000
    888 H         181.4647  104.8125  201.0452 H        56        0    0.0000
    889 C         176.4421  106.2519  201.2282 C.3      57        0    0.0000
    890 C         177.1929  105.0114  200.7378 C.3      57        0    0.0000
    891 C         178.6907  105.2863  200.9618 C.3      57        0    0.0000
    892 C         179.4562  104.1181  201.5955 C.3      57        0    0.0000
    893 C         178.7217  106.5457  201.8336 C.3      57        0    0.0000
    894 C         177.4966  107.3522  201.3900 C.3      57        0    0.0000
    895 C         177.7515  108.1420  200.0922 C.3      57        0    0.0000
    896 H         175.6208  106.5224  200.5578 H        57        0    0.0000
    897 H         175.9985  106.0319  202.2077 H        57        0    0.0000
    898 H         176.8385  104.1231  201.2723 H        57        0    0.0000
    899 H         177.0004  104.8458  199.6713 H        57        0    0.0000
    900 H         179.1452  105.5318  199.9913 H        57        0    0.0000
    901 H         178.9461  103.8057  202.5145 H        57        0    0.0000
    902 H         179.4586  103.2523  200.9234 H        57        0    0.0000
    903 H         179.6593  107.0997  201.7206 H        57        0    0.0000
    904 H         178.6199  106.2791  202.8936 H        57        0    0.0000
    905 H         177.2041  108.0461  202.1883 H        57        0    0.0000
    906 H         177.4511  107.5637  199.2115 H        57        0    0.0000
    907 H         178.8252  108.3404  199.9919 H        57        0    0.0000
    908 C         177.0048  109.5074  200.0908 C.3      58        0    0.0000
    909 C         177.7720  110.6374  199.3896 C.3      58        0    0.0000
    910 H         176.0609  109.3517  199.5526 H        58        0    0.0000
    911 H         176.7381  109.7837  201.1176 H        58        0    0.0000
    912 H         178.8218  110.6623  199.7049 H        58        0    0.0000
    913 H         177.7731  110.4304  198.3117 H        58        0    0.0000
    914 C         173.9739  112.2100  200.4683 C.3      59        0    0.0000
    915 C         174.7038  111.3198  199.4589 C.3      59        0    0.0000
    916 C         175.7949  112.1865  198.8208 C.3      59        0    0.0000
    917 C         177.1301  112.0556  199.5776 C.3      59        0    0.0000
    918 C         175.1676  113.5852  198.8765 C.3      59        0    0.0000
    919 C         174.4877  113.6424  200.2468 C.3      59        0    0.0000
    920 C         173.4033  114.7236  200.3150 C.3      59        0    0.0000
    921 H         172.8912  112.1262  200.3205 H        59        0    0.0000
    922 H         174.1875  111.8858  201.4933 H        59        0    0.0000
    923 H         173.9919  111.0058  198.6850 H        59        0    0.0000
    924 H         175.0932  110.4085  199.9241 H        59        0    0.0000
    925 H         175.9465  111.8843  197.7765 H        59        0    0.0000
    926 H         176.9543  112.2142  200.6484 H        59        0    0.0000
    927 H         177.8432  112.8242  199.2610 H        59        0    0.0000
    928 H         174.4211  113.6806  198.0772 H        59        0    0.0000
    929 H         175.8916  114.3952  198.7466 H        59        0    0.0000
    930 H         175.2538  113.8564  201.0052 H        59        0    0.0000
    931 H         173.0307  114.8259  201.3409 H        59        0    0.0000
    932 H         172.5502  114.4233  199.6953 H        59        0    0.0000
    933 C         172.3662  118.9877  201.7038 C.3      60        0    0.0000
    934 C         172.7492  117.5173  201.6344 C.3      60        0    0.0000
    935 C         173.0089  117.2846  200.1406 C.3      60        0    0.0000
    936 C         173.9261  116.0998  199.8119 C.3      60        0    0.0000
    937 C         173.4616  118.6480  199.5787 C.3      60        0    0.0000
    938 C         173.3612  119.6466  200.7463 C.3      60        0    0.0000
    939 C         172.9277  121.0588  200.3454 C.3      60        0    0.0000
    940 H         171.3340  119.1279  201.3603 H        60        0    0.0000
    941 H         172.4458  119.3842  202.7207 H        60        0    0.0000
    942 H         173.6442  117.3431  202.2414 H        60        0    0.0000
    943 H         171.9542  116.8695  202.0169 H        60        0    0.0000
    944 H         172.0366  117.0613  199.6766 H        60        0    0.0000
    945 H         174.0634  116.0471  198.7253 H        60        0    0.0000
    946 H         174.9167  116.2827  200.2451 H        60        0    0.0000
    947 H         172.7959  118.9330  198.7544 H        60        0    0.0000
    948 H         174.4784  118.6290  199.1726 H        60        0    0.0000
    949 H         174.3406  119.6913  201.2446 H        60        0    0.0000
    950 H         171.8752  121.2200  200.6070 H        60        0    0.0000
    951 H         173.5096  121.7921  200.9163 H        60        0    0.0000
    952 C         171.5824  124.4752  197.4192 C.3      61        0    0.0000
    953 C         172.1875  123.6902  198.5860 C.3      61        0    0.0000
    954 C         172.0100  122.2051  198.2440 C.3      61        0    0.0000
    955 C         173.1266  121.3357  198.8287 C.3      61        0    0.0000
    956 C         171.9369  122.2065  196.7134 C.3      61        0    0.0000
    957 C         171.0644  123.4316  196.4208 C.3      61        0    0.0000
    958 C         171.1273  123.9288  194.9740 C.3      61        0    0.0000
    959 H         170.7733  125.1323  197.7557 H        61        0    0.0000
    960 H         172.3530  125.1128  196.9695 H        61        0    0.0000
    961 H         171.6948  123.9370  199.5326 H        61        0    0.0000
    962 H         173.2467  123.9536  198.6928 H        61        0    0.0000
    963 H         171.0387  121.8758  198.6412 H        61        0    0.0000
    964 H         174.0895  121.8416  198.6899 H        61        0    0.0000
    965 H         173.1892  120.3834  198.2891 H        61        0    0.0000
    966 H         171.4920  121.2851  196.3244 H        61        0    0.0000
    967 H         172.9352  122.3207  196.2726 H        61        0    0.0000
    968 H         170.0238  123.1922  196.6844 H        61        0    0.0000
    969 H         170.8645  123.1200  194.2821 H        61        0    0.0000
    970 H         172.1562  124.2252  194.7375 H        61        0    0.0000
    971 C         170.1935  125.1452  194.7260 C.3      62        0    0.0000
    972 C         170.8285  126.2564  193.8778 C.3      62        0    0.0000
    973 H         169.3154  124.7659  194.1879 H        62        0    0.0000
    974 H         169.8301  125.5334  195.6846 H        62        0    0.0000
    975 H         171.9051  126.3377  194.0683 H        62        0    0.0000
    976 H         170.7167  125.9838  192.8206 H        62        0    0.0000
    977 C         172.5345  130.4249  194.4510 C.3      63        0    0.0000
    978 C         172.3601  128.9390  194.1404 C.3      63        0    0.0000
    979 C         170.9936  128.7903  193.4496 C.3      63        0    0.0000
    980 C         170.1527  127.6599  194.0573 C.3      63        0    0.0000
    981 C         170.3469  130.1798  193.5587 C.3      63        0    0.0000
    982 C         171.5244  131.1628  193.5686 C.3      63        0    0.0000
    983 C         172.1017  131.4696  192.1746 C.3      63        0    0.0000
    984 H         172.2868  130.5983  195.5061 H        63        0    0.0000
    985 H         173.5664  130.7581  194.3023 H        63        0    0.0000
    986 H         172.4413  128.3451  195.0574 H        63        0    0.0000
    987 H         173.1530  128.5977  193.4645 H        63        0    0.0000
    988 H         171.1748  128.5705  192.3879 H        63        0    0.0000
    989 H         169.1517  127.6473  193.6107 H        63        0    0.0000
    990 H         170.0184  127.8450  195.1299 H        63        0    0.0000
    991 H         169.6375  130.3672  192.7468 H        63        0    0.0000
    992 H         169.7959  130.2703  194.5039 H        63        0    0.0000
    993 H         171.2285  132.1026  194.0520 H        63        0    0.0000
    994 H         172.3266  130.5486  191.6262 H        63        0    0.0000
    995 H         173.0512  132.0067  192.2874 H        63        0    0.0000
    996 C         168.6299  132.2417  194.1374 C.3      64        0    0.0000
    997 C         169.5557  131.5377  193.1419 C.3      64        0    0.0000
    998 C         169.7711  132.5215  191.9843 C.3      64        0    0.0000
    999 C         171.1451  132.3571  191.3288 C.3      64        0    0.0000
   1000 C         169.5353  133.8867  192.6390 C.3      64        0    0.0000
   1001 C         168.3244  133.6215  193.5399 C.3      64        0    0.0000
   1002 C         168.0864  134.6828  194.6176 C.3      64        0    0.0000
   1003 H         167.7090  131.6714  194.2997 H        64        0    0.0000
   1004 H         169.1343  132.3272  195.1074 H        64        0    0.0000
   1005 H         169.1188  130.5994  192.7837 H        64        0    0.0000
   1006 H         170.5016  131.2875  193.6371 H        64        0    0.0000
   1007 H         168.9824  132.3497  191.2374 H        64        0    0.0000
   1008 H         171.6061  133.3439  191.2020 H        64        0    0.0000
   1009 H         171.0391  131.9266  190.3262 H        64        0    0.0000
   1010 H         169.3308  134.6658  191.8979 H        64        0    0.0000
   1011 H         170.4061  134.1939  193.2316 H        64        0    0.0000
   1012 H         167.4297  133.5303  192.9070 H        64        0    0.0000
   1013 H         168.9924  134.8244  195.2185 H        64        0    0.0000
   1014 H         167.3042  134.3340  195.3025 H        64        0    0.0000
   1015 C         167.6456  136.0461  194.0175 C.3      65        0    0.0000
   1016 C         166.5478  136.7562  194.8223 C.3      65        0    0.0000
   1017 H         167.2518  135.8381  193.0144 H        65        0    0.0000
   1018 H         168.5219  136.6910  193.8827 H        65        0    0.0000
   1019 H         165.7367  136.0383  194.9989 H        65        0    0.0000
   1020 H         166.9130  137.0653  195.8087 H        65        0    0.0000
   1021 C         166.2619  138.0037  190.3909 C.3      66        0    0.0000
   1022 C         166.5588  137.2602  191.6955 C.3      66        0    0.0000
   1023 C         166.6683  138.3302  192.7967 C.3      66        0    0.0000
   1024 C         165.9117  137.9855  194.0854 C.3      66        0    0.0000
   1025 C         166.1458  139.6109  192.1381 C.3      66        0    0.0000
   1026 C         166.5544  139.4826  190.6668 C.3      66        0    0.0000
   1027 C         168.0287  139.8622  190.4312 C.3      66        0    0.0000
   1028 H         166.8267  137.5913  189.5495 H        66        0    0.0000
   1029 H         165.1971  137.8862  190.1519 H        66        0    0.0000
   1030 H         165.7726  136.5237  191.8945 H        66        0    0.0000
   1031 H         167.5042  136.7111  191.6150 H        66        0    0.0000
   1032 H         167.7325  138.4765  193.0307 H        66        0    0.0000
   1033 H         165.9359  138.8477  194.7624 H        66        0    0.0000
   1034 H         164.8569  137.7822  193.8675 H        66        0    0.0000
   1035 H         166.5485  140.5107  192.6144 H        66        0    0.0000
   1036 H         165.0515  139.6589  192.2110 H        66        0    0.0000
   1037 H         165.9098  140.1205  190.0488 H        66        0    0.0000
   1038 H         168.3210  139.6868  189.3900 H        66        0    0.0000
   1039 H         168.6716  139.2286  191.0537 H        66        0    0.0000
   1040 C         164.6579  141.4799  191.1569 C.3      67        0    0.0000
   1041 C         165.9826  141.1180  191.8268 C.3      67        0    0.0000
   1042 C         167.0409  142.0800  191.2598 C.3      67        0    0.0000
   1043 C         168.3088  141.3476  190.8012 C.3      67        0    0.0000
   1044 C         166.3170  142.8406  190.1381 C.3      67        0    0.0000
   1045 C         164.8474  142.8835  190.5758 C.3      67        0    0.0000
   1046 C         164.5294  143.9774  191.6114 C.3      67        0    0.0000
   1047 H         164.4691  140.7728  190.3390 H        67        0    0.0000
   1048 H         163.8131  141.4066  191.8490 H        67        0    0.0000
   1049 H         166.2251  140.0645  191.6492 H        67        0    0.0000
   1050 H         165.9074  141.2525  192.9123 H        67        0    0.0000
   1051 H         167.3066  142.7937  192.0524 H        67        0    0.0000
   1052 H         169.0788  141.3951  191.5800 H        67        0    0.0000
   1053 H         168.7196  141.8529  189.9188 H        67        0    0.0000
   1054 H         166.7453  143.8341  189.9732 H        67        0    0.0000
   1055 H         166.3938  142.2885  189.1924 H        67        0    0.0000
   1056 H         164.1961  143.0127  189.7020 H        67        0    0.0000
   1057 H         165.4217  144.2557  192.1824 H        67        0    0.0000
   1058 H         163.8029  143.5887  192.3354 H        67        0    0.0000
   1059 C         163.9185  145.2461  190.9518 C.3      68        0    0.0000
   1060 C         162.8455  145.9377  191.8049 C.3      68        0    0.0000
   1061 H         164.7436  145.9543  190.8028 H        68        0    0.0000
   1062 H         163.5360  144.9965  189.9551 H        68        0    0.0000
   1063 H         162.3721  145.2330  192.4987 H        68        0    0.0000
   1064 H         163.3393  146.7003  192.4207 H        68        0    0.0000
   1065 C         162.4540  145.3990  188.0276 C.3      69        0    0.0000
   1066 C         163.2804  146.2542  188.9920 C.3      69        0    0.0000
   1067 C         162.3057  147.2380  189.6485 C.3      69        0    0.0000
   1068 C         161.7439  146.6756  190.9678 C.3      69        0    0.0000
   1069 C         161.2583  147.4367  188.5456 C.3      69        0    0.0000
   1070 C         161.0573  146.0383  187.9561 C.3      69        0    0.0000
   1071 C         160.4494  146.0803  186.5496 C.3      69        0    0.0000
   1072 H         162.9479  145.3620  187.0499 H        69        0    0.0000
   1073 H         162.3801  144.3684  188.3930 H        69        0    0.0000
   1074 H         164.0275  146.8148  188.4158 H        69        0    0.0000
   1075 H         163.8280  145.6414  189.7152 H        69        0    0.0000
   1076 H         162.8177  148.1866  189.8553 H        69        0    0.0000
   1077 H         160.9452  145.9584  190.7427 H        69        0    0.0000
   1078 H         161.2913  147.4660  191.5760 H        69        0    0.0000
   1079 H         161.6587  148.1171  187.7826 H        69        0    0.0000
   1080 H         160.3187  147.8659  188.9062 H        69        0    0.0000
   1081 H         160.3850  145.4760  188.6192 H        69        0    0.0000
   1082 H         160.2481  145.0643  186.1907 H        69        0    0.0000
   1083 H         161.1706  146.5261  185.8544 H        69        0    0.0000
   1084 C         157.7739  146.9372  190.0587 C.3      70        0    0.0000
   1085 C         158.6764  146.3322  188.9924 C.3      70        0    0.0000
   1086 C         158.6528  147.3903  187.8844 C.3      70        0    0.0000
   1087 C         159.1371  146.9150  186.5111 C.3      70        0    0.0000
   1088 C         157.2303  147.9824  187.9189 C.3      70        0    0.0000
   1089 C         156.6047  147.4950  189.2404 C.3      70        0    0.0000
   1090 C         155.7202  148.5127  189.9672 C.3      70        0    0.0000
   1091 H         157.4459  146.1904  190.7884 H        70        0    0.0000
   1092 H         158.3132  147.7246  190.5966 H        70        0    0.0000
   1093 H         159.6886  146.1522  189.3676 H        70        0    0.0000
   1094 H         158.2625  145.3749  188.6570 H        70        0    0.0000
   1095 H         159.3371  148.1938  188.1961 H        70        0    0.0000
   1096 H         158.3499  146.3123  186.0428 H        70        0    0.0000
   1097 H         159.2930  147.7868  185.8646 H        70        0    0.0000
   1098 H         156.6114  147.6527  187.0775 H        70        0    0.0000
   1099 H         157.2866  149.0742  187.8517 H        70        0    0.0000
   1100 H         155.9568  146.6422  188.9877 H        70        0    0.0000
   1101 H         155.3621  148.0708  190.9046 H        70        0    0.0000
   1102 H         156.3269  149.3839  190.2411 H        70        0    0.0000
   1103 C         154.4913  148.9983  189.1412 C.3      71        0    0.0000
   1104 C         153.2110  148.1893  189.3934 C.3      71        0    0.0000
   1105 H         154.7589  148.8909  188.0822 H        71        0    0.0000
   1106 H         154.3281  150.0682  189.3162 H        71        0    0.0000
   1107 H         153.5029  147.1833  189.7209 H        71        0    0.0000
   1108 H         152.6182  148.6240  190.2069 H        71        0    0.0000
   1109 C         152.3110  148.0082  188.1223 C.3      72        0    0.0000
   1110 C         151.8808  146.5571  187.8641 C.3      72        0    0.0000
   1111 H         152.9048  148.3452  187.2630 H        72        0    0.0000
   1112 H         151.4439  148.6761  188.1853 H        72        0    0.0000
   1113 H         151.7633  146.4244  186.7810 H        72        0    0.0000
   1114 H         152.6538  145.8488  188.1846 H        72        0    0.0000
   1115 C         147.3370  147.2285  186.7705 C.3      73        0    0.0000
   1116 C         148.8097  146.8120  186.7323 C.3      73        0    0.0000
   1117 C         149.3839  147.1324  188.1186 C.3      73        0    0.0000
   1118 C         150.5085  146.1734  188.5186 C.3      73        0    0.0000
   1119 C         148.1503  147.0839  189.0262 C.3      73        0    0.0000
   1120 C         147.0827  147.7833  188.1782 C.3      73        0    0.0000
   1121 C         145.6432  147.5495  188.6447 C.3      73        0    0.0000
   1122 H         147.1137  147.9802  186.0058 H        73        0    0.0000
   1123 H         146.7055  146.3564  186.5627 H        73        0    0.0000
   1124 H         149.3564  147.3460  185.9477 H        73        0    0.0000
   1125 H         148.8804  145.7413  186.5063 H        73        0    0.0000
   1126 H         149.7662  148.1635  188.1011 H        73        0    0.0000
   1127 H         150.2451  145.1560  188.2054 H        73        0    0.0000
   1128 H         150.6182  146.1498  189.6092 H        73        0    0.0000
   1129 H         148.3210  147.6003  189.9762 H        73        0    0.0000
   1130 H         147.8628  146.0476  189.2434 H        73        0    0.0000
   1131 H         147.2964  148.8620  188.1650 H        73        0    0.0000
   1132 H         144.9354  147.9018  187.8853 H        73        0    0.0000
   1133 H         145.4556  148.1397  189.5497 H        73        0    0.0000
   1134 C         143.4597  145.0341  185.8330 C.3      74        0    0.0000
   1135 C         144.2464  146.0703  186.6235 C.3      74        0    0.0000
   1136 C         144.8428  145.2458  187.7689 C.3      74        0    0.0000
   1137 C         145.3601  146.0555  188.9619 C.3      74        0    0.0000
   1138 C         143.7783  144.1814  188.0997 C.3      74        0    0.0000
   1139 C         142.7737  144.2151  186.9314 C.3      74        0    0.0000
   1140 C         142.2264  142.8537  186.4916 C.3      74        0    0.0000
   1141 H         142.7373  145.4992  185.1550 H        74        0    0.0000
   1142 H         144.1464  144.4263  185.2337 H        74        0    0.0000
   1143 H         145.0201  146.5481  186.0145 H        74        0    0.0000
   1144 H         143.5690  146.8510  186.9868 H        74        0    0.0000
   1145 H         145.7099  144.7079  187.3569 H        74        0    0.0000
   1146 H         144.6278  146.0008  189.7761 H        74        0    0.0000
   1147 H         146.2818  145.5940  189.3356 H        74        0    0.0000
   1148 H         143.2532  144.3823  189.0398 H        74        0    0.0000
   1149 H         144.2610  143.2054  188.2182 H        74        0    0.0000
   1150 H         141.9092  144.8031  187.2749 H        74        0    0.0000
   1151 H         143.0382  142.2699  186.0417 H        74        0    0.0000
   1152 H         141.8923  142.2990  187.3763 H        74        0    0.0000
   1153 C         141.0466  142.9353  185.4769 C.3      75        0    0.0000
   1154 C         141.0483  141.8150  184.4269 C.3      75        0    0.0000
   1155 H         140.1207  142.8536  186.0604 H        75        0    0.0000
   1156 H         141.0332  143.9246  185.0046 H        75        0    0.0000
   1157 H         142.0648  141.5945  184.0805 H        75        0    0.0000
   1158 H         140.6742  140.9003  184.9045 H        75        0    0.0000
   1159 C         140.3784  139.7436  180.3885 C.3      76        0    0.0000
   1160 C         140.8497  140.0851  181.8012 C.3      76        0    0.0000
   1161 C         139.6790  140.8023  182.4954 C.3      76        0    0.0000
   1162 C         140.1193  142.0949  183.1951 C.3      76        0    0.0000
   1163 C         138.6373  141.0146  181.3861 C.3      76        0    0.0000
   1164 C         138.8512  139.8459  180.4158 C.3      76        0    0.0000
   1165 C         138.1990  138.5256  180.8652 C.3      76        0    0.0000
   1166 H         140.7780  140.4908  179.6908 H        76        0    0.0000
   1167 H         140.7426  138.7657  180.0582 H        76        0    0.0000
   1168 H         141.7603  140.6931  181.7635 H        76        0    0.0000
   1169 H         141.0969  139.1687  182.3500 H        76        0    0.0000
   1170 H         139.2590  140.1154  183.2437 H        76        0    0.0000
   1171 H         139.2440  142.6713  183.5165 H        76        0    0.0000
   1172 H         140.6680  142.7231  182.4832 H        76        0    0.0000
   1173 H         137.6187  141.0623  181.7833 H        76        0    0.0000
   1174 H         138.8290  141.9583  180.8590 H        76        0    0.0000
   1175 H         138.4806  140.1106  179.4173 H        76        0    0.0000
   1176 H         138.0371  138.5107  181.9483 H        76        0    0.0000
   1177 H         138.8760  137.6931  180.6383 H        76        0    0.0000
   1178 C         136.1719  136.6806  176.8473 C.3      77        0    0.0000
   1179 C         137.0733  136.7128  178.0839 C.3      77        0    0.0000
   1180 C         137.0385  138.1565  178.6165 C.3      77        0    0.0000
   1181 C         136.8516  138.2618  180.1351 C.3      77        0    0.0000
   1182 C         135.8974  138.8223  177.8408 C.3      77        0    0.0000
   1183 C         135.9171  138.1432  176.4671 C.3      77        0    0.0000
   1184 C         137.0005  138.7253  175.5395 C.3      77        0    0.0000
   1185 H         136.6083  136.0842  176.0404 H        77        0    0.0000
   1186 H         135.2188  136.2078  177.1172 H        77        0    0.0000
   1187 H         136.7264  135.9791  178.8199 H        77        0    0.0000
   1188 H         138.1004  136.4403  177.8144 H        77        0    0.0000
   1189 H         137.9783  138.6515  178.3330 H        77        0    0.0000
   1190 H         136.1664  139.0876  180.3603 H        77        0    0.0000
   1191 H         136.3892  137.3491  180.5282 H        77        0    0.0000
   1192 H         136.0219  139.9084  177.7800 H        77        0    0.0000
   1193 H         134.9357  138.6259  178.3322 H        77        0    0.0000
   1194 H         134.9339  138.2477  175.9909 H        77        0    0.0000
   1195 H         137.9286  138.9197  176.0882 H        77        0    0.0000
   1196 H         136.6589  139.6876  175.1401 H        77        0    0.0000
   1197 C         137.6899  134.1996  175.5090 C.3      78        0    0.0000
   1198 C         137.1880  135.6143  175.7549 C.3      78        0    0.0000
   1199 C         137.9593  136.4520  174.7271 C.3      78        0    0.0000
   1200 C         137.3004  137.7817  174.3388 C.3      78        0    0.0000
   1201 C         138.2639  135.4970  173.5547 C.3      78        0    0.0000
   1202 C         137.7390  134.1141  173.9821 C.3      78        0    0.0000
   1203 C         138.5815  132.9317  173.4971 C.3      78        0    0.0000
   1204 H         138.6879  134.0696  175.9451 H        78        0    0.0000
   1205 H         137.0249  133.4476  175.9445 H        78        0    0.0000
   1206 H         136.1058  135.6525  175.5905 H        78        0    0.0000
   1207 H         137.3827  135.9443  176.7802 H        78        0    0.0000
   1208 H         138.9275  136.7079  175.1828 H        78        0    0.0000
   1209 H         137.9528  138.3091  173.6326 H        78        0    0.0000
   1210 H         136.3639  137.5757  173.8072 H        78        0    0.0000
   1211 H         139.3475  135.4750  173.3847 H        78        0    0.0000
   1212 H         137.8018  135.8117  172.6131 H        78        0    0.0000
   1213 H         136.7096  134.0078  173.6099 H        78        0    0.0000
   1214 H         139.6014  133.2627  173.2680 H        78        0    0.0000
   1215 H         138.6643  132.1916  174.3019 H        78        0    0.0000
   1216 C         139.0374  129.0869  170.4092 C.3      79        0    0.0000
   1217 C         138.8959  130.6017  170.4631 C.3      79        0    0.0000
   1218 C         138.5661  130.8618  171.9366 C.3      79        0    0.0000
   1219 C         137.9739  132.2406  172.2442 C.3      79        0    0.0000
   1220 C         137.7119  129.6579  172.3799 C.3      79        0    0.0000
   1221 C         137.8630  128.6033  171.2662 C.3      79        0    0.0000
   1222 C         137.9502  127.1495  171.7408 C.3      79        0    0.0000
   1223 H         138.9822  128.7074  169.3842 H        79        0    0.0000
   1224 H         140.0044  128.7904  170.8302 H        79        0    0.0000
   1225 H         139.8139  131.1094  170.1513 H        79        0    0.0000
   1226 H         138.0871  130.9216  169.7970 H        79        0    0.0000
   1227 H         139.5141  130.7980  172.4917 H        79        0    0.0000
   1228 H         138.1192  132.8944  171.3761 H        79        0    0.0000
   1229 H         136.8913  132.1420  172.3867 H        79        0    0.0000
   1230 H         136.6532  129.9098  172.5043 H        79        0    0.0000
   1231 H         138.0610  129.3007  173.3547 H        79        0    0.0000
   1232 H         136.9608  128.6738  170.6399 H        79        0    0.0000
   1233 H         138.5457  126.5736  171.0226 H        79        0    0.0000
   1234 H         138.4889  127.1158  172.6953 H        79        0    0.0000
   1235 C         136.5692  126.4506  171.9205 C.3      80        0    0.0000
   1236 C         136.6049  124.9318  171.6977 C.3      80        0    0.0000
   1237 H         135.8932  126.8883  171.1749 H        80        0    0.0000
   1238 H         136.1543  126.6997  172.9043 H        80        0    0.0000
   1239 H         137.2757  124.7273  170.8534 H        80        0    0.0000
   1240 H         137.0259  124.4111  172.5658 H        80        0    0.0000
   1241 C         135.0878  120.6001  172.0080 C.3      81        0    0.0000
   1242 C         135.7418  121.9717  172.1940 C.3      81        0    0.0000
   1243 C         135.3139  122.8197  170.9890 C.3      81        0    0.0000
   1244 C         135.2134  124.3087  171.3315 C.3      81        0    0.0000
   1245 C         133.9930  122.1728  170.5593 C.3      81        0    0.0000
   1246 C         134.2920  120.6764  170.6984 C.3      81        0    0.0000
   1247 C         133.0528  119.7772  170.7171 C.3      81        0    0.0000
   1248 H         135.8367  119.8019  171.9666 H        81        0    0.0000
   1249 H         134.4344  120.3884  172.8629 H        81        0    0.0000
   1250 H         136.8327  121.8907  172.2497 H        81        0    0.0000
   1251 H         135.4003  122.4141  173.1375 H        81        0    0.0000
   1252 H         136.0529  122.6738  170.1877 H        81        0    0.0000
   1253 H         134.5375  124.4390  172.1851 H        81        0    0.0000
   1254 H         134.7746  124.8629  170.4934 H        81        0    0.0000
   1255 H         133.7204  122.4418  169.5339 H        81        0    0.0000
   1256 H         133.1737  122.4733  171.2244 H        81        0    0.0000
   1257 H         134.9562  120.3735  169.8758 H        81        0    0.0000
   1258 H         132.4114  120.0313  171.5690 H        81        0    0.0000
   1259 H         133.3640  118.7348  170.8556 H        81        0    0.0000
   1260 C         132.2306  119.8767  169.4030 C.3      82        0    0.0000
   1261 C         131.6415  118.5391  168.9328 C.3      82        0    0.0000
   1262 H         131.3984  120.5643  169.6013 H        82        0    0.0000
   1263 H         132.8409  120.3411  168.6196 H        82        0    0.0000
   1264 H         131.5132  117.8434  169.7703 H        82        0    0.0000
   1265 H         130.6395  118.7317  168.5285 H        82        0    0.0000
   1266 C         132.7097  117.8377  164.0889 C.3      83        0    0.0000
   1267 C         133.1705  118.4892  165.3951 C.3      83        0    0.0000
   1268 C         132.0191  118.3183  166.4022 C.3      83        0    0.0000
   1269 C         132.4644  117.8464  167.7919 C.3      83        0    0.0000
   1270 C         131.0653  117.3272  165.7274 C.3      83        0    0.0000
   1271 C         131.1989  117.6222  164.2296 C.3      83        0    0.0000
   1272 C         130.3698  118.8458  163.7955 C.3      83        0    0.0000
   1273 H         132.9914  118.4332  163.2152 H        83        0    0.0000
   1274 H         133.2041  116.8632  163.9868 H        83        0    0.0000
   1275 H         134.1047  118.0286  165.7345 H        83        0    0.0000
   1276 H         133.3730  119.5552  165.2390 H        83        0    0.0000
   1277 H         131.4984  119.2819  166.4977 H        83        0    0.0000
   1278 H         132.3226  116.7619  167.8698 H        83        0    0.0000
   1279 H         133.5338  118.0382  167.9369 H        83        0    0.0000
   1280 H         130.0384  117.4335  166.0918 H        83        0    0.0000
   1281 H         131.3827  116.2955  165.9268 H        83        0    0.0000
   1282 H         130.8836  116.7439  163.6521 H        83        0    0.0000
   1283 H         130.8296  119.3518  162.9394 H        83        0    0.0000
   1284 H         130.3374  119.5729  164.6156 H        83        0    0.0000
   1285 C         126.3338  115.9585  164.3977 C.3      84        0    0.0000
   1286 C         126.9804  117.3090  164.7154 C.3      84        0    0.0000
   1287 C         128.4372  117.2255  164.2256 C.3      84        0    0.0000
   1288 C         128.9067  118.4545  163.4373 C.3      84        0    0.0000
   1289 C         128.4862  115.9426  163.3896 C.3      84        0    0.0000
   1290 C         127.4847  115.0017  164.0678 C.3      84        0    0.0000
   1291 C         128.0755  114.3135  165.3129 C.3      84        0    0.0000
   1292 H         125.6917  115.6124  165.2132 H        84        0    0.0000
   1293 H         125.6955  116.0722  163.5121 H        84        0    0.0000
   1294 H         126.4160  118.1168  164.2366 H        84        0    0.0000
   1295 H         126.9612  117.4965  165.7953 H        84        0    0.0000
   1296 H         129.0881  117.0875  165.1008 H        84        0    0.0000
   1297 H         128.8574  118.2379  162.3636 H        84        0    0.0000
   1298 H         128.2398  119.3048  163.6208 H        84        0    0.0000
   1299 H         129.4966  115.5238  163.3398 H        84        0    0.0000
   1300 H         128.1599  116.1442  162.3610 H        84        0    0.0000
   1301 H         127.1532  114.2391  163.3517 H        84        0    0.0000
   1302 H         127.8604  114.8867  166.2215 H        84        0    0.0000
   1303 H         129.1668  114.2643  165.2181 H        84        0    0.0000
   1304 C         128.5036  112.4870  161.9590 C.3      85        0    0.0000
   1305 C         128.9950  112.5889  163.4022 C.3      85        0    0.0000
   1306 C         127.8988  111.9693  164.2861 C.3      85        0    0.0000
   1307 C         127.5383  112.8625  165.4804 C.3      85        0    0.0000
   1308 C         126.7278  111.7026  163.3278 C.3      85        0    0.0000
   1309 C         127.3844  111.4424  161.9661 C.3      85        0    0.0000
   1310 C         127.9351  110.0150  161.7939 C.3      85        0    0.0000
   1311 H         128.0901  113.4573  161.6556 H        85        0    0.0000
   1312 H         129.3149  112.2498  161.2637 H        85        0    0.0000
   1313 H         129.2113  113.6317  163.6592 H        85        0    0.0000
   1314 H         129.9281  112.0267  163.5253 H        85        0    0.0000
   1315 H         128.2721  111.0053  164.6599 H        85        0    0.0000
   1316 H         127.9262  112.4304  166.4101 H        85        0    0.0000
   1317 H         126.4473  112.9068  165.5831 H        85        0    0.0000
   1318 H         126.1001  110.8731  163.6676 H        85        0    0.0000
   1319 H         126.0868  112.5907  163.2533 H        85        0    0.0000
   1320 H         126.6744  111.6561  161.1569 H        85        0    0.0000
   1321 H         127.4193  109.3079  162.4524 H        85        0    0.0000
   1322 H         128.9927  109.9988  162.0840 H        85        0    0.0000
   1323 C         124.5374  111.1147  159.7068 C.3      86        0    0.0000
   1324 C         125.4069  110.3222  160.6859 C.3      86        0    0.0000
   1325 C         126.3795  109.4869  159.8341 C.3      86        0    0.0000
   1326 C         127.8330  109.5233  160.3223 C.3      86        0    0.0000
   1327 C         126.2257  110.0489  158.4172 C.3      86        0    0.0000
   1328 C         124.7573  110.4786  158.3299 C.3      86        0    0.0000
   1329 C         123.8136  109.2929  158.0531 C.3      86        0    0.0000
   1330 H         123.4893  111.1384  160.0200 H        86        0    0.0000
   1331 H         124.8895  112.1540  159.6832 H        86        0    0.0000
   1332 H         125.9204  111.0068  161.3700 H        86        0    0.0000
   1333 H         124.7846  109.6590  161.2980 H        86        0    0.0000
   1334 H         126.0263  108.4458  159.8285 H        86        0    0.0000
   1335 H         128.2618  108.5160  160.2614 H        86        0    0.0000
   1336 H         128.4388  110.1663  159.6734 H        86        0    0.0000
   1337 H         126.5000  109.3147  157.6528 H        86        0    0.0000
   1338 H         126.8721  110.9257  158.2818 H        86        0    0.0000
   1339 H         124.6404  111.2307  157.5394 H        86        0    0.0000
   1340 H         122.8033  109.4960  158.4251 H        86        0    0.0000
   1341 H         124.1771  108.4064  158.5863 H        86        0    0.0000
   1342 C         123.7449  108.9513  156.5364 C.3      87        0    0.0000
   1343 C         124.1610  107.5118  156.2016 C.3      87        0    0.0000
   1344 H         122.6996  109.0838  156.2289 H        87        0    0.0000
   1345 H         124.3339  109.6796  155.9666 H        87        0    0.0000
   1346 H         124.9208  107.1434  156.9008 H        87        0    0.0000
   1347 H         123.2821  106.8660  156.3244 H        87        0    0.0000
   1348 C         124.6614  107.3197  154.7281 C.3      88        0    0.0000
   1349 C         124.7285  105.8532  154.2782 C.3      88        0    0.0000
   1350 H         123.9463  107.8422  154.0799 H        88        0    0.0000
   1351 H         125.6273  107.8215  154.5975 H        88        0    0.0000
   1352 H         125.3627  105.2594  154.9469 H        88        0    0.0000
   1353 H         123.7182  105.4297  154.3461 H        88        0    0.0000
   1354 C         128.0789  107.9835  151.9164 C.3      89        0    0.0000
   1355 C         126.7757  107.7139  152.6556 C.3      89        0    0.0000
   1356 C         126.6066  106.1982  152.5082 C.3      89        0    0.0000
   1357 C         125.2005  105.6626  152.7951 C.3      89        0    0.0000
   1358 C         127.1752  105.8599  151.1162 C.3      89        0    0.0000
   1359 C         127.9459  107.1147  150.6613 C.3      89        0    0.0000
   1360 C         129.2506  106.8498  149.9038 C.3      89        0    0.0000
   1361 H         128.1985  109.0435  151.6720 H        89        0    0.0000
   1362 H         128.9274  107.6802  152.5396 H        89        0    0.0000
   1363 H         126.8295  108.0216  153.7045 H        89        0    0.0000
   1364 H         125.9590  108.2679  152.1799 H        89        0    0.0000
   1365 H         127.2758  105.7294  153.2453 H        89        0    0.0000
   1366 H         124.4849  106.1616  152.1309 H        89        0    0.0000
   1367 H         125.1666  104.5946  152.5492 H        89        0    0.0000
   1368 H         126.3958  105.6236  150.3839 H        89        0    0.0000
   1369 H         127.8120  104.9715  151.1870 H        89        0    0.0000
   1370 H         127.2859  107.6564  149.9670 H        89        0    0.0000
   1371 H         129.3855  107.6258  149.1409 H        89        0    0.0000
   1372 H         130.0936  106.9415  150.5989 H        89        0    0.0000
   1373 C         129.3192  105.4536  149.2153 C.3      90        0    0.0000
   1374 C         130.5747  105.2422  148.3571 C.3      90        0    0.0000
   1375 H         129.3251  104.7047  150.0175 H        90        0    0.0000
   1376 H         128.4054  105.2831  148.6340 H        90        0    0.0000
   1377 H         130.7038  106.0545  147.6322 H        90        0    0.0000
   1378 H         131.4490  105.2714  149.0199 H        90        0    0.0000
   1379 C         134.1484  102.4963  147.5786 C.3      91        0    0.0000
   1380 C         133.1154  103.4511  148.1573 C.3      91        0    0.0000
   1381 C         132.0024  103.4578  147.1018 C.3      91        0    0.0000
   1382 C         130.6145  103.8611  147.6157 C.3      91        0    0.0000
   1383 C         132.0772  102.0820  146.4080 C.3      91        0    0.0000
   1384 C         133.2898  101.3587  147.0221 C.3      91        0    0.0000
   1385 C         134.0679  100.4723  146.0466 C.3      91        0    0.0000
   1386 H         134.7169  102.9899  146.7809 H        91        0    0.0000
   1387 H         134.8552  102.1481  148.3380 H        91        0    0.0000
   1388 H         132.7664  103.0710  149.1234 H        91        0    0.0000
   1389 H         133.5297  104.4509  148.3209 H        91        0    0.0000
   1390 H         132.2818  104.2061  146.3451 H        91        0    0.0000
   1391 H         129.9184  103.8971  146.7693 H        91        0    0.0000
   1392 H         130.2439  103.0837  148.2942 H        91        0    0.0000
   1393 H         132.2096  102.2330  145.3295 H        91        0    0.0000
   1394 H         131.1669  101.4867  146.5352 H        91        0    0.0000
   1395 H         132.9348  100.7504  147.8668 H        91        0    0.0000
   1396 H         134.9222  100.0097  146.5549 H        91        0    0.0000
   1397 H         133.4225   99.6533  145.7075 H        91        0    0.0000
   1398 C         134.5748  101.2557  144.8033 C.3      92        0    0.0000
   1399 C         135.5917  100.4831  143.9510 C.3      92        0    0.0000
   1400 H         135.0649  102.1631  145.1787 H        92        0    0.0000
   1401 H         133.7202  101.5871  144.2018 H        92        0    0.0000
   1402 H         136.4371  100.2088  144.5950 H        92        0    0.0000
   1403 H         135.1665   99.5450  143.5755 H        92        0    0.0000
   1404 C         136.1821  101.3108  142.7573 C.3      93        0    0.0000
   1405 C         136.7582  100.4487  141.6249 C.3      93        0    0.0000
   1406 H         136.9960  101.9222  143.1676 H        93        0    0.0000
   1407 H         135.4247  102.0088  142.3814 H        93        0    0.0000
   1408 H         137.6835   99.9835  141.9883 H        93        0    0.0000
   1409 H         136.0783   99.6301  141.3614 H        93        0    0.0000
   1410 C         134.1236  101.8371  138.3182 C.3      94        0    0.0000
   1411 C         134.6726  101.4182  139.6811 C.3      94        0    0.0000
   1412 C         135.9960  102.1783  139.8760 C.3      94        0    0.0000
   1413 C         137.1347  101.2585  140.3360 C.3      94        0    0.0000
   1414 C         136.2538  102.8671  138.5269 C.3      94        0    0.0000
   1415 C         134.8588  103.1268  137.9442 C.3      94        0    0.0000
   1416 C         134.1568  104.3708  138.5187 C.3      94        0    0.0000
   1417 H         134.3648  101.0580  137.5838 H        94        0    0.0000
   1418 H         133.0345  101.9453  138.3287 H        94        0    0.0000
   1419 H         134.7951  100.3305  139.7257 H        94        0    0.0000
   1420 H         133.9689  101.6958  140.4747 H        94        0    0.0000
   1421 H         135.8309  102.9524  140.6387 H        94        0    0.0000
   1422 H         138.0448  101.8414  140.5191 H        94        0    0.0000
   1423 H         137.3704  100.5464  139.5361 H        94        0    0.0000
   1424 H         136.8493  103.7784  138.6386 H        94        0    0.0000
   1425 H         136.8039  102.1952  137.8553 H        94        0    0.0000
   1426 H         134.9159  103.2161  136.8518 H        94        0    0.0000
   1427 H         134.8830  105.0931  138.9069 H        94        0    0.0000
   1428 H         133.5289  104.0715  139.3666 H        94        0    0.0000
   1429 C         131.0943  105.2735  134.9958 C.3      95        0    0.0000
   1430 C         131.0608  104.4890  136.3101 C.3      95        0    0.0000
   1431 C         132.5001  104.0421  136.5890 C.3      95        0    0.0000
   1432 C         133.2454  105.0648  137.4672 C.3      95        0    0.0000
   1433 C         133.0685  103.8874  135.1726 C.3      95        0    0.0000
   1434 C         132.5000  105.0820  134.4026 C.3      95        0    0.0000
   1435 C         132.5247  104.8631  132.8856 C.3      95        0    0.0000
   1436 H         130.3051  104.9100  134.3278 H        95        0    0.0000
   1437 H         130.9017  106.3372  135.1768 H        95        0    0.0000
   1438 H         130.4261  103.6037  136.1773 H        95        0    0.0000
   1439 H         130.6252  105.0756  137.1254 H        95        0    0.0000
   1440 H         132.4955  103.0706  137.0998 H        95        0    0.0000
   1441 H         132.5132  105.6825  138.0012 H        95        0    0.0000
   1442 H         133.8458  105.7488  136.8580 H        95        0    0.0000
   1443 H         132.7068  102.9469  134.7367 H        95        0    0.0000
   1444 H         134.1619  103.8643  135.1397 H        95        0    0.0000
   1445 H         133.1018  105.9691  134.6453 H        95        0    0.0000
   1446 H         133.3680  105.4004  132.4364 H        95        0    0.0000
   1447 H         131.6113  105.2778  132.4430 H        95        0    0.0000
   1448 C         134.9971  102.6349  129.6627 C.3      96        0    0.0000
   1449 C         134.5716  103.5154  130.8277 C.3      96        0    0.0000
   1450 C         133.1280  103.0749  131.1015 C.3      96        0    0.0000
   1451 C         132.6159  103.3536  132.5203 C.3      96        0    0.0000
   1452 C         133.0474  101.6034  130.6458 C.3      96        0    0.0000
   1453 C         134.4219  101.2678  130.0385 C.3      96        0    0.0000
   1454 C         134.3778  100.3120  128.8438 C.3      96        0    0.0000
   1455 H         134.5596  103.0049  128.7275 H        96        0    0.0000
   1456 H         136.0847  102.6082  129.5453 H        96        0    0.0000
   1457 H         135.2290  103.3321  131.6844 H        96        0    0.0000
   1458 H         134.6342  104.5797  130.5796 H        96        0    0.0000
   1459 H         132.4822  103.6497  130.4209 H        96        0    0.0000
   1460 H         131.6221  102.9043  132.6345 H        96        0    0.0000
   1461 H         133.2716  102.8530  133.2426 H        96        0    0.0000
   1462 H         132.2491  101.5040  129.8999 H        96        0    0.0000
   1463 H         132.8065  100.9137  131.4616 H        96        0    0.0000
   1464 H         135.0507  100.8357  130.8307 H        96        0    0.0000
   1465 H         135.3381  100.3233  128.3147 H        96        0    0.0000
   1466 H         134.2296   99.2873  129.2048 H        96        0    0.0000
   1467 C         131.8071   97.5278  126.2631 C.3      97        0    0.0000
   1468 C         132.5876   98.1923  127.3868 C.3      97        0    0.0000
   1469 C         132.9510   99.5655  126.8076 C.3      97        0    0.0000
   1470 C         133.2386  100.6587  127.8445 C.3      97        0    0.0000
   1471 C         131.8409   99.8953  125.7885 C.3      97        0    0.0000
   1472 C         130.9206   98.6618  125.7443 C.3      97        0    0.0000
   1473 C         130.3331   98.3504  124.3656 C.3      97        0    0.0000
   1474 H         132.4920   97.1724  125.4836 H        97        0    0.0000
   1475 H         131.2216   96.6748  126.6197 H        97        0    0.0000
   1476 H         131.9523   98.2738  128.2754 H        97        0    0.0000
   1477 H         133.4767   97.6167  127.6627 H        97        0    0.0000
   1478 H         133.8783   99.4351  126.2300 H        97        0    0.0000
   1479 H         133.5013  101.5855  127.3208 H        97        0    0.0000
   1480 H         132.3222  100.8663  128.4097 H        97        0    0.0000
   1481 H         132.2995  100.0835  124.8098 H        97        0    0.0000
   1482 H         131.2713  100.7934  126.0495 H        97        0    0.0000
   1483 H         130.1039   98.8172  126.4643 H        97        0    0.0000
   1484 H         129.3360   97.9066  124.4708 H        97        0    0.0000
   1485 H         130.2040   99.2853  123.8073 H        97        0    0.0000
   1486 C         129.7733   93.9353  123.9084 C.3      98        0    0.0000
   1487 C         129.6335   95.4491  123.8599 C.3      98        0    0.0000
   1488 C         131.0826   95.9304  123.9575 C.3      98        0    0.0000
   1489 C         131.2343   97.3939  123.5355 C.3      98        0    0.0000
   1490 C         131.8613   94.9256  123.0888 C.3      98        0    0.0000
   1491 C         130.9854   93.6582  123.0101 C.3      98        0    0.0000
   1492 C         131.7144   92.3364  123.2826 C.3      98        0    0.0000
   1493 H         128.8723   93.4300  123.5466 H        98        0    0.0000
   1494 H         129.9438   93.6163  124.9423 H        98        0    0.0000
   1495 H         129.1767   95.7581  122.9118 H        98        0    0.0000
   1496 H         129.0149   95.8298  124.6784 H        98        0    0.0000
   1497 H         131.4150   95.8129  124.9993 H        98        0    0.0000
   1498 H         132.2802   97.7088  123.6317 H        98        0    0.0000
   1499 H         130.9718   97.4943  122.4756 H        98        0    0.0000
   1500 H         132.0173   95.3150  122.0751 H        98        0    0.0000
   1501 H         132.8535   94.7364  123.5118 H        98        0    0.0000
   1502 H         130.6123   93.5986  121.9767 H        98        0    0.0000
   1503 H         131.0053   91.5072  123.1739 H        98        0    0.0000
   1504 H         132.0529   92.3254  124.3256 H        98        0    0.0000
   1505 C         133.5344   94.9880  120.0105 C.3      99        0    0.0000
   1506 C         132.9258   94.4366  121.2908 C.3      99        0    0.0000
   1507 C         132.9563   92.9179  121.0772 C.3      99        0    0.0000
   1508 C         132.9388   92.0756  122.3590 C.3      99        0    0.0000
   1509 C         134.1431   92.6540  120.1278 C.3      99        0    0.0000
   1510 C         134.7045   94.0370  119.7500 C.3      99        0    0.0000
   1511 C         135.2280   94.1454  118.3158 C.3      99        0    0.0000
   1512 H         132.8027   94.9481  119.1943 H        99        0    0.0000
   1513 H         133.8623   96.0255  120.1264 H        99        0    0.0000
   1514 H         133.5339   94.7456  122.1478 H        99        0    0.0000
   1515 H         131.9083   94.8065  121.4517 H        99        0    0.0000
   1516 H         132.0447   92.6536  120.5207 H        99        0    0.0000
   1517 H         132.9531   91.0134  122.0869 H        99        0    0.0000
   1518 H         133.8577   92.2669  122.9259 H        99        0    0.0000
   1519 H         133.7793   92.1180  119.2423 H        99        0    0.0000
   1520 H         134.9226   92.0302  120.5777 H        99        0    0.0000
   1521 H         135.5120   94.2836  120.4547 H        99        0    0.0000
   1522 H         134.4670   94.5970  117.6684 H        99        0    0.0000
   1523 H         136.0955   94.8159  118.2965 H        99        0    0.0000
   1524 C         136.8807   90.5227  120.3572 C.3     100        0    0.0000
   1525 C         136.1551   91.8314  120.0482 C.3     100        0    0.0000
   1526 C         135.4118   91.6200  118.7179 C.3     100        0    0.0000
   1527 C         135.6483   92.7688  117.7287 C.3     100        0    0.0000
   1528 C         135.8935   90.2507  118.2140 C.3     100        0    0.0000
   1529 C         136.2164   89.4545  119.4848 C.3     100        0    0.0000
   1530 C         134.9845   88.8399  120.1741 C.3     100        0    0.0000
   1531 H         137.9339   90.6235  120.0656 H       100        0    0.0000
   1532 H         136.8625   90.2843  121.4253 H       100        0    0.0000
   1533 H         136.8669   92.6633  120.0115 H       100        0    0.0000
   1534 H         135.4328   92.0604  120.8406 H       100        0    0.0000
   1535 H         134.3371   91.5537  118.9392 H       100        0    0.0000
   1536 H         135.1053   92.5848  116.7944 H       100        0    0.0000
   1537 H         136.7137   92.8122  117.4723 H       100        0    0.0000
   1538 H         135.1486   89.7621  117.5784 H       100        0    0.0000
   1539 H         136.8092   90.3644  117.6193 H       100        0    0.0000
   1540 H         136.9388   88.6595  119.2596 H       100        0    0.0000
   1541 H         134.5597   89.5262  120.9145 H       100        0    0.0000
   1542 H         135.2888   87.9390  120.7205 H       100        0    0.0000
   1543 C         133.8513   87.5806  115.5820 C.3     101        0    0.0000
   1544 C         133.1898   88.3903  116.6963 C.3     101        0    0.0000
   1545 C         134.2975   88.7383  117.7057 C.3     101        0    0.0000
   1546 C         133.8854   88.4337  119.1519 C.3     101        0    0.0000
   1547 C         135.5259   87.9500  117.2255 C.3     101        0    0.0000
   1548 C         135.3548   87.8414  115.7050 C.3     101        0    0.0000
   1549 C         135.7804   89.1022  114.9307 C.3     101        0    0.0000
   1550 H         133.6544   86.5145  115.7533 H       101        0    0.0000
   1551 H         133.4463   87.8298  114.5962 H       101        0    0.0000
   1552 H         132.3674   87.8221  117.1446 H       101        0    0.0000
   1553 H         132.7596   89.3132  116.2898 H       101        0    0.0000
   1554 H         134.5123   89.8123  117.6134 H       101        0    0.0000
   1555 H         133.6516   87.3687  119.2652 H       101        0    0.0000
   1556 H         132.9687   88.9861  119.3912 H       101        0    0.0000
   1557 H         136.4634   88.4323  117.5191 H       101        0    0.0000
   1558 H         135.5250   86.9417  117.6598 H       101        0    0.0000
   1559 H         135.9123   86.9768  115.3225 H       101        0    0.0000
   1560 H         136.8416   89.3245  115.0859 H       101        0    0.0000
   1561 H         135.2207   89.9653  115.3111 H       101        0    0.0000
   1562 C         136.1842   92.2183  111.6047 C.3     102        0    0.0000
   1563 C         136.5467   91.1518  112.6268 C.3     102        0    0.0000
   1564 C         135.2584   90.3342  112.7406 C.3     102        0    0.0000
   1565 C         135.4934   88.9767  113.4077 C.3     102        0    0.0000
   1566 C         134.7433   90.2592  111.2916 C.3     102        0    0.0000
   1567 C         135.3901   91.4440  110.5450 C.3     102        0    0.0000
   1568 C         134.4317   92.2897  109.6969 C.3     102        0    0.0000
   1569 H         137.0728   92.6968  111.1810 H       102        0    0.0000
   1570 H         135.5818   92.9965  112.0855 H       102        0    0.0000
   1571 H         137.3749   90.5359  112.2556 H       102        0    0.0000
   1572 H         136.8463   91.5876  113.5848 H       102        0    0.0000
   1573 H         134.5344   90.9131  113.3325 H       102        0    0.0000
   1574 H         134.6244   88.3255  113.2563 H       102        0    0.0000
   1575 H         136.3457   88.4804  112.9286 H       102        0    0.0000
   1576 H         135.0507   89.3229  110.8092 H       102        0    0.0000
   1577 H         133.6488   90.2830  111.2687 H       102        0    0.0000
   1578 H         136.1226   91.0124  109.8466 H       102        0    0.0000
   1579 H         135.0109   93.0307  109.1333 H       102        0    0.0000
   1580 H         133.7678   92.8519  110.3644 H       102        0    0.0000
   1581 C         135.3325   89.7882  105.8073 C.3     103        0    0.0000
   1582 C         135.3123   90.2091  107.2688 C.3     103        0    0.0000
   1583 C         134.1983   91.2623  107.3232 C.3     103        0    0.0000
   1584 C         133.5601   91.4701  108.7025 C.3     103        0    0.0000
   1585 C         133.2194   90.8928  106.1897 C.3     103        0    0.0000
   1586 C         133.8460   89.6919  105.4579 C.3     103        0    0.0000
   1587 C         133.6088   89.6688  103.9459 C.3     103        0    0.0000
   1588 H         135.8334   90.5513  105.1992 H       103        0    0.0000
   1589 H         135.8542   88.8373  105.6621 H       103        0    0.0000
   1590 H         135.0901   89.3398  107.8971 H       103        0    0.0000
   1591 H         136.2761   90.6165  107.5900 H       103        0    0.0000
   1592 H         134.6524   92.2248  107.0441 H       103        0    0.0000
   1593 H         132.5980   91.9809  108.5759 H       103        0    0.0000
   1594 H         133.3402   90.4920  109.1466 H       103        0    0.0000
   1595 H         133.1098   91.7535  105.5183 H       103        0    0.0000
   1596 H         132.2164   90.6442  106.5524 H       103        0    0.0000
   1597 H         133.4460   88.7705  105.9058 H       103        0    0.0000
   1598 H         134.5669   89.6499  103.4130 H       103        0    0.0000
   1599 H         133.0806   88.7466  103.6760 H       103        0    0.0000
   1600 C         132.5470   89.0596  100.2311 C.3     104        0    0.0000
   1601 C         133.1239   90.2670  100.9742 C.3     104        0    0.0000
   1602 C         132.1241   90.6149  102.0916 C.3     104        0    0.0000
   1603 C         132.7736   90.8844  103.4546 C.3     104        0    0.0000
   1604 C         131.1629   89.4225  102.1289 C.3     104        0    0.0000
   1605 C         131.0847   88.9444  100.6751 C.3     104        0    0.0000
   1606 C         130.1251   89.7997   99.8261 C.3     104        0    0.0000
   1607 H         132.6740   89.1491   99.1480 H       104        0    0.0000
   1608 H         133.0903   88.1590  100.5452 H       104        0    0.0000
   1609 H         134.1232   90.0299  101.3558 H       104        0    0.0000
   1610 H         133.2313   91.1188  100.2926 H       104        0    0.0000
   1611 H         131.5548   91.5026  101.7809 H       104        0    0.0000
   1612 H         133.4375   91.7534  103.3750 H       104        0    0.0000
   1613 H         132.0099   91.1352  104.1998 H       104        0    0.0000
   1614 H         130.1856   89.6963  102.5396 H       104        0    0.0000
   1615 H         131.5732   88.6206  102.7562 H       104        0    0.0000
   1616 H         130.7598   87.8965  100.6494 H       104        0    0.0000
   1617 H         130.5453   90.7931   99.6339 H       104        0    0.0000
   1618 H         129.1888   89.9509  100.3764 H       104        0    0.0000
   1619 C         132.5031   87.9378   96.3027 C.3     105        0    0.0000
   1620 C         132.1410   88.6543   97.6027 C.3     105        0    0.0000
   1621 C         130.8155   88.0430   98.0888 C.3     105        0    0.0000
   1622 C         129.7850   89.1135   98.4713 C.3     105        0    0.0000
   1623 C         130.3662   87.1224   96.9436 C.3     105        0    0.0000
   1624 C         131.6678   86.6551   96.2799 C.3     105        0    0.0000
   1625 C         132.3729   85.5019   97.0169 C.3     105        0    0.0000
   1626 H         132.2137   88.5724   95.4553 H       105        0    0.0000
   1627 H         133.5793   87.7571   96.2183 H       105        0    0.0000
   1628 H         132.0769   89.7355   97.4379 H       105        0    0.0000
   1629 H         132.9202   88.4891   98.3561 H       105        0    0.0000
   1630 H         131.0332   87.4243   98.9709 H       105        0    0.0000
   1631 H         128.7814   88.6756   98.5211 H       105        0    0.0000
   1632 H         129.7560   89.8834   97.6908 H       105        0    0.0000
   1633 H         129.7453   86.2953   97.3014 H       105        0    0.0000
   1634 H         129.7727   87.6863   96.2122 H       105        0    0.0000
   1635 H         131.4767   86.3570   95.2410 H       105        0    0.0000
   1636 H         133.1685   85.8755   97.6704 H       105        0    0.0000
   1637 H         132.8539   84.8447   96.2822 H       105        0    0.0000
   1638 C         130.0261   87.5038   96.9650 C.3     106        0    0.0000
   1639 C         129.8410   86.6329   98.2106 C.3     106        0    0.0000
   1640 C         129.9352   85.1764   97.7433 C.3     106        0    0.0000
   1641 C         131.3771   84.6450   97.8487 C.3     106        0    0.0000
   1642 C         129.3932   85.2629   96.3109 C.3     106        0    0.0000
   1643 C         129.9947   86.5559   95.7545 C.3     106        0    0.0000
   1644 C         129.2135   87.0910   94.5491 C.3     106        0    0.0000
   1645 H         129.2361   88.2623   96.9232 H       106        0    0.0000
   1646 H         130.9840   88.0349   97.0049 H       106        0    0.0000
   1647 H         128.8414   86.8164   98.6248 H       106        0    0.0000
   1648 H         130.5630   86.8824   98.9948 H       106        0    0.0000
   1649 H         129.2778   84.5460   98.3559 H       106        0    0.0000
   1650 H         131.4103   83.6159   97.4711 H       106        0    0.0000
   1651 H         131.7109   84.6060   98.8911 H       106        0    0.0000
   1652 H         128.2980   85.3349   96.3405 H       106        0    0.0000
   1653 H         129.6477   84.3963   95.6933 H       106        0    0.0000
   1654 H         131.0302   86.3525   95.4474 H       106        0    0.0000
   1655 H         128.1382   86.9321   94.6905 H       106        0    0.0000
   1656 H         129.5022   86.5321   93.6510 H       106        0    0.0000
   1657 C         127.6250   87.9497   91.2121 C.3     107        0    0.0000
   1658 C         127.5523   88.4654   92.6486 C.3     107        0    0.0000
   1659 C         128.9239   89.0867   92.9641 C.3     107        0    0.0000
   1660 C         129.4885   88.6029   94.3063 C.3     107        0    0.0000
   1661 C         129.8008   88.7344   91.7526 C.3     107        0    0.0000
   1662 C         128.8257   88.6506   90.5714 C.3     107        0    0.0000
   1663 C         128.4380   90.0163   89.9755 C.3     107        0    0.0000
   1664 H         127.8070   86.8676   91.2324 H       107        0    0.0000
   1665 H         126.6880   88.1098   90.6695 H       107        0    0.0000
   1666 H         127.2845   87.6529   93.3329 H       107        0    0.0000
   1667 H         126.7727   89.2312   92.7372 H       107        0    0.0000
   1668 H         128.7991   90.1781   93.0008 H       107        0    0.0000
   1669 H         129.0687   89.1913   95.1304 H       107        0    0.0000
   1670 H         130.5730   88.7646   94.3223 H       107        0    0.0000
   1671 H         130.6006   89.4652   91.5985 H       107        0    0.0000
   1672 H         130.2744   87.7546   91.8972 H       107        0    0.0000
   1673 H         129.2445   88.0165   89.7795 H       107        0    0.0000
   1674 H         129.3117   90.5327   89.5637 H       107        0    0.0000
   1675 H         128.0415   90.6579   90.7718 H       107        0    0.0000
   1676 C         124.0695   88.7424   90.4252 C.3     108        0    0.0000
   1677 C         125.5916   88.7651   90.4171 C.3     108        0    0.0000
   1678 C         125.9114   89.8760   89.4115 C.3     108        0    0.0000
   1679 C         127.3464   89.8850   88.8760 C.3     108        0    0.0000
   1680 C         124.8040   89.7873   88.3431 C.3     108        0    0.0000
   1681 C         123.7179   88.8707   88.9394 C.3     108        0    0.0000
   1682 C         122.2722   89.2779   88.6387 C.3     108        0    0.0000
   1683 H         123.6768   87.8192   90.8625 H       108        0    0.0000
   1684 H         123.6900   89.5855   91.0129 H       108        0    0.0000
   1685 H         126.0026   88.9775   91.4089 H       108        0    0.0000
   1686 H         125.9745   87.7917   90.0915 H       108        0    0.0000
   1687 H         125.7679   90.8325   89.9365 H       108        0    0.0000
   1688 H         127.5239   88.9616   88.3120 H       108        0    0.0000
   1689 H         127.4593   90.7137   88.1670 H       108        0    0.0000
   1690 H         125.1588   89.3663   87.3962 H       108        0    0.0000
   1691 H         124.4343   90.7928   88.1148 H       108        0    0.0000
   1692 H         123.8623   87.8764   88.4905 H       108        0    0.0000
   1693 H         121.6410   88.3813   88.6359 H       108        0    0.0000
   1694 H         121.9046   89.9193   89.4485 H       108        0    0.0000
   1695 C         124.2502   89.3372   84.3492 C.3     109        0    0.0000
   1696 C         123.8057   88.8788   85.7403 C.3     109        0    0.0000
   1697 C         123.4073   90.1475   86.5154 C.3     109        0    0.0000
   1698 C         122.0860   90.0254   87.2843 C.3     109        0    0.0000
   1699 C         123.3630   91.2477   85.4502 C.3     109        0    0.0000
   1700 C         124.4491   90.8539   84.4434 C.3     109        0    0.0000
   1701 C         125.8604   91.2512   84.9161 C.3     109        0    0.0000
   1702 H         125.1370   88.7960   84.0060 H       109        0    0.0000
   1703 H         123.4461   89.1236   83.6333 H       109        0    0.0000
   1704 H         122.9851   88.1581   85.6530 H       109        0    0.0000
   1705 H         124.6292   88.3710   86.2559 H       109        0    0.0000
   1706 H         124.2151   90.3883   87.2213 H       109        0    0.0000
   1707 H         121.6923   91.0277   87.4913 H       109        0    0.0000
   1708 H         121.3351   89.5087   86.6755 H       109        0    0.0000
   1709 H         123.5224   92.2418   85.8804 H       109        0    0.0000
   1710 H         122.3860   91.2559   84.9498 H       109        0    0.0000
   1711 H         124.2419   91.3265   83.4748 H       109        0    0.0000
   1712 H         126.5872   90.4600   84.7011 H       109        0    0.0000
   1713 H         125.8540   91.3909   86.0036 H       109        0    0.0000
   1714 C         127.2423   94.0252   81.0100 C.3     110        0    0.0000
   1715 C         127.6851   93.1250   82.1625 C.3     110        0    0.0000
   1716 C         126.4105   92.4774   82.7310 C.3     110        0    0.0000
   1717 C         126.3365   92.5797   84.2602 C.3     110        0    0.0000
   1718 C         125.2557   93.1793   82.0000 C.3     110        0    0.0000
   1719 C         125.8320   93.5652   80.6318 C.3     110        0    0.0000
   1720 C         125.8623   92.4119   79.6122 C.3     110        0    0.0000
   1721 H         127.2005   95.0625   81.3660 H       110        0    0.0000
   1722 H         127.9471   93.9988   80.1730 H       110        0    0.0000
   1723 H         128.2383   93.7049   82.9093 H       110        0    0.0000
   1724 H         128.3617   92.3444   81.7952 H       110        0    0.0000
   1725 H         126.4143   91.4166   82.4430 H       110        0    0.0000
   1726 H         125.6685   93.3972   84.5554 H       110        0    0.0000
   1727 H         127.3299   92.8244   84.6551 H       110        0    0.0000
   1728 H         124.3682   92.5431   81.9285 H       110        0    0.0000
   1729 H         124.9637   94.0915   82.5366 H       110        0    0.0000
   1730 H         125.2698   94.4073   80.2084 H       110        0    0.0000
   1731 H         125.1108   91.6514   79.8499 H       110        0    0.0000
   1732 H         126.8382   91.9135   79.6601 H       110        0    0.0000
   1733 C         123.1307   95.4732   79.0916 C.3     111        0    0.0000
   1734 C         123.6369   94.0449   79.3068 C.3     111        0    0.0000
   1735 C         124.2924   93.6063   77.9850 C.3     111        0    0.0000
   1736 C         125.6502   92.9142   78.1560 C.3     111        0    0.0000
   1737 C         124.3939   94.8952   77.1630 C.3     111        0    0.0000
   1738 C         123.1681   95.7155   77.5787 C.3     111        0    0.0000
   1739 C         121.8842   95.2585   76.8605 C.3     111        0    0.0000
   1740 H         122.1443   95.6276   79.5393 H       111        0    0.0000
   1741 H         123.8202   96.1704   79.5846 H       111        0    0.0000
   1742 H         124.3295   94.0165   80.1552 H       111        0    0.0000
   1743 H         122.8021   93.3765   79.5478 H       111        0    0.0000
   1744 H         123.6022   92.9249   77.4672 H       111        0    0.0000
   1745 H         125.7068   92.0533   77.4792 H       111        0    0.0000
   1746 H         126.4640   93.5928   77.8754 H       111        0    0.0000
   1747 H         124.4260   94.6941   76.0872 H       111        0    0.0000
   1748 H         125.3075   95.4444   77.4250 H       111        0    0.0000
   1749 H         123.3468   96.7773   77.3669 H       111        0    0.0000
   1750 H         120.9972   95.7319   77.2959 H       111        0    0.0000
   1751 H         121.7621   94.1762   76.9869 H       111        0    0.0000
   1752 C         119.0714   96.1345   73.8343 C.3     112        0    0.0000
   1753 C         119.4875   95.0833   74.8668 C.3     112        0    0.0000
   1754 C         120.9360   94.7017   74.5425 C.3     112        0    0.0000
   1755 C         121.9351   95.5651   75.3356 C.3     112        0    0.0000
   1756 C         120.9887   94.9034   73.0228 C.3     112        0    0.0000
   1757 C         120.1916   96.1879   72.7821 C.3     112        0    0.0000
   1758 C         119.6988   96.3060   71.3354 C.3     112        0    0.0000
   1759 H         118.1022   95.8634   73.4004 H       112        0    0.0000
   1760 H         118.9514   97.1149   74.3092 H       112        0    0.0000
   1761 H         118.8459   94.2006   74.7509 H       112        0    0.0000
   1762 H         119.3550   95.4428   75.8924 H       112        0    0.0000
   1763 H         121.1059   93.6453   74.7871 H       112        0    0.0000
   1764 H         121.6912   96.6244   75.1896 H       112        0    0.0000
   1765 H         122.9579   95.4269   74.9692 H       112        0    0.0000
   1766 H         120.5007   94.0544   72.5265 H       112        0    0.0000
   1767 H         122.0057   94.9744   72.6255 H       112        0    0.0000
   1768 H         120.8396   97.0459   73.0099 H       112        0    0.0000
   1769 H         120.2512   97.0919   70.8074 H       112        0    0.0000
   1770 H         118.6433   96.6029   71.3334 H       112        0    0.0000
   1771 C         120.3202   93.4210   73.8610 C.3     113        0    0.0000
   1772 C         119.4828   93.4418   72.5831 C.3     113        0    0.0000
   1773 C         120.4302   93.8499   71.4416 C.3     113        0    0.0000
   1774 C         119.8411   94.9623   70.5643 C.3     113        0    0.0000
   1775 C         121.7432   94.2335   72.1414 C.3     113        0    0.0000
   1776 C         121.7816   93.3694   73.4082 C.3     113        0    0.0000
   1777 C         122.2548   91.9235   73.1713 C.3     113        0    0.0000
   1778 H         120.1462   94.3527   74.4143 H       113        0    0.0000
   1779 H         120.0409   92.5952   74.5227 H       113        0    0.0000
   1780 H         118.6319   94.1226   72.6951 H       113        0    0.0000
   1781 H         119.0732   92.4448   72.3822 H       113        0    0.0000
   1782 H         120.6110   92.9616   70.8199 H       113        0    0.0000
   1783 H         118.8650   94.6588   70.1686 H       113        0    0.0000
   1784 H         120.4958   95.1267   69.7000 H       113        0    0.0000
   1785 H         122.6123   94.0848   71.4933 H       113        0    0.0000
   1786 H         121.7257   95.2926   72.4298 H       113        0    0.0000
   1787 H         122.4204   93.8390   74.1671 H       113        0    0.0000
   1788 H         121.7301   91.4673   72.3250 H       113        0    0.0000
   1789 H         122.0149   91.3164   74.0526 H       113        0    0.0000
   1790 H         123.3307   91.8668   73.0059 H       113        0    0.0000
   1791 H          69.9665  183.4345   96.4218 H         0        0    0.0000
@<TRIPOS>BOND
     1     1     2      1
     2     1     6      1
     3     1     8      1
     4     1     9      1
     5     2     3      1
     6     2    10      1
     7     2    11      1
     8     3     4      1
     9     3     5      1
    10     3    12      1
    11     4    13      1
    12     4    14      1
    13     4  1791      H
    14     5     6      1
    15     5    15      1
    16     5    16      1
    17     6     7      1
    18     6    17      1
    19     7    18      1
    20     7    19      1
    21     7    23      1
    22    20    21      1
    23    20    25      1
    24    20    27      1
    25    20    28      1
    26    21    22      1
    27    21    29      1
    28    21    30      1
    29    22    23      1
    30    22    24      1
    31    22    31      1
    32    23    32      1
    33    23    33      1
    34    24    25      1
    35    24    34      1
    36    24    35      1
    37    25    26      1
    38    25    36      1
    39    26    37      1
    40    26    38      1
    41    26    39      1
    42    39    40      1
    43    39    41      1
    44    39    42      1
    45    40    43      1
    46    40    44      1
    47    40    48      1
    48    45    46      1
    49    45    50      1
    50    45    52      1
    51    45    53      1
    52    46    47      1
    53    46    54      1
    54    46    55      1
    55    47    48      1
    56    47    49      1
    57    47    56      1
    58    48    57      1
    59    48    58      1
    60    49    50      1
    61    49    59      1
    62    49    60      1
    63    50    51      1
    64    50    61      1
    65    51    62      1
    66    51    63      1
    67    51    64      1
    68    64    65      1
    69    64    66      1
    70    64    67      1
    71    65    68      1
    72    65    69      1
    73    65    73      1
    74    70    71      1
    75    70    75      1
    76    70    77      1
    77    70    78      1
    78    71    72      1
    79    71    79      1
    80    71    80      1
    81    72    73      1
    82    72    74      1
    83    72    81      1
    84    73    82      1
    85    73    83      1
    86    74    75      1
    87    74    84      1
    88    74    85      1
    89    75    76      1
    90    75    86      1
    91    76    87      1
    92    76    88      1
    93    76    92      1
    94    89    90      1
    95    89    94      1
    96    89    96      1
    97    89    97      1
    98    90    91      1
    99    90    98      1
   100    90    99      1
   101    91    92      1
   102    91    93      1
   103    91   100      1
   104    92   101      1
   105    92   102      1
   106    93    94      1
   107    93   103      1
   108    93   104      1
   109    94    95      1
   110    94   105      1
   111    95   106      1
   112    95   107      1
   113    95   108      1
   114   108   109      1
   115   108   110      1
   116   108   111      1
   117   109   112      1
   118   109   113      1
   119   109   114      1
   120   114   115      1
   121   114   116      1
   122   114   117      1
   123   115   118      1
   124   115   119      1
   125   115   120      1
   126   120   121      1
   127   120   122      1
   128   120   123      1
   129   121   124      1
   130   121   125      1
   131   121   126      1
   132   126   127      1
   133   126   128      1
   134   126   129      1
   135   127   130      1
   136   127   131      1
   137   127   135      1
   138   132   133      1
   139   132   137      1
   140   132   139      1
   141   132   140      1
   142   133   134      1
   143   133   141      1
   144   133   142      1
   145   134   135      1
   146   134   136      1
   147   134   143      1
   148   135   144      1
   149   135   145      1
   150   136   137      1
   151   136   146      1
   152   136   147      1
   153   137   138      1
   154   137   148      1
   155   138   149      1
   156   138   150      1
   157   138   154      1
   158   151   152      1
   159   151   156      1
   160   151   158      1
   161   151   159      1
   162   152   153      1
   163   152   160      1
   164   152   161      1
   165   153   154      1
   166   153   155      1
   167   153   162      1
   168   154   163      1
   169   154   164      1
   170   155   156      1
   171   155   165      1
   172   155   166      1
   173   156   157      1
   174   156   167      1
   175   157   168      1
   176   157   169      1
   177   157   170      1
   178   170   171      1
   179   170   172      1
   180   170   173      1
   181   171   174      1
   182   171   175      1
   183   171   179      1
   184   176   177      1
   185   176   181      1
   186   176   183      1
   187   176   184      1
   188   177   178      1
   189   177   185      1
   190   177   186      1
   191   178   179      1
   192   178   180      1
   193   178   187      1
   194   179   188      1
   195   179   189      1
   196   180   181      1
   197   180   190      1
   198   180   191      1
   199   181   182      1
   200   181   192      1
   201   182   193      1
   202   182   194      1
   203   182   195      1
   204   195   196      1
   205   195   197      1
   206   195   198      1
   207   196   199      1
   208   196   200      1
   209   196   204      1
   210   201   202      1
   211   201   206      1
   212   201   208      1
   213   201   209      1
   214   202   203      1
   215   202   210      1
   216   202   211      1
   217   203   204      1
   218   203   205      1
   219   203   212      1
   220   204   213      1
   221   204   214      1
   222   205   206      1
   223   205   215      1
   224   205   216      1
   225   206   207      1
   226   206   217      1
   227   207   218      1
   228   207   219      1
   229   207   223      1
   230   220   221      1
   231   220   225      1
   232   220   227      1
   233   220   228      1
   234   221   222      1
   235   221   229      1
   236   221   230      1
   237   222   223      1
   238   222   224      1
   239   222   231      1
   240   223   232      1
   241   223   233      1
   242   224   225      1
   243   224   234      1
   244   224   235      1
   245   225   226      1
   246   225   236      1
   247   226   237      1
   248   226   238      1
   249   226   242      1
   250   239   240      1
   251   239   244      1
   252   239   246      1
   253   239   247      1
   254   240   241      1
   255   240   248      1
   256   240   249      1
   257   241   242      1
   258   241   243      1
   259   241   250      1
   260   242   251      1
   261   242   252      1
   262   243   244      1
   263   243   253      1
   264   243   254      1
   265   244   245      1
   266   244   255      1
   267   245   256      1
   268   245   257      1
   269   245   261      1
   270   258   259      1
   271   258   263      1
   272   258   265      1
   273   258   266      1
   274   259   260      1
   275   259   267      1
   276   259   268      1
   277   260   261      1
   278   260   262      1
   279   260   269      1
   280   261   270      1
   281   261   271      1
   282   262   263      1
   283   262   272      1
   284   262   273      1
   285   263   264      1
   286   263   274      1
   287   264   275      1
   288   264   276      1
   289   264   277      1
   290   277   278      1
   291   277   279      1
   292   277   280      1
   293   278   281      1
   294   278   282      1
   295   278   286      1
   296   283   284      1
   297   283   288      1
   298   283   290      1
   299   283   291      1
   300   284   285      1
   301   284   292      1
   302   284   293      1
   303   285   286      1
   304   285   287      1
   305   285   294      1
   306   286   295      1
   307   286   296      1
   308   287   288      1
   309   287   297      1
   310   287   298      1
   311   288   289      1
   312   288   299      1
   313   289   300      1
   314   289   301      1
   315   289   305      1
   316   302   303      1
   317   302   307      1
   318   302   309      1
   319   302   310      1
   320   303   304      1
   321   303   311      1
   322   303   312      1
   323   304   305      1
   324   304   306      1
   325   304   313      1
   326   305   314      1
   327   305   315      1
   328   306   307      1
   329   306   316      1
   330   306   317      1
   331   307   308      1
   332   307   318      1
   333   308   319      1
   334   308   320      1
   335   308   324      1
   336   321   322      1
   337   321   326      1
   338   321   328      1
   339   321   329      1
   340   322   323      1
   341   322   330      1
   342   322   331      1
   343   323   324      1
   344   323   325      1
   345   323   332      1
   346   324   333      1
   347   324   334      1
   348   325   326      1
   349   325   335      1
   350   325   336      1
   351   326   327      1
   352   326   337      1
   353   327   338      1
   354   327   339      1
   355   327   343      1
   356   340   341      1
   357   340   345      1
   358   340   347      1
   359   340   348      1
   360   341   342      1
   361   341   349      1
   362   341   350      1
   363   342   343      1
   364   342   344      1
   365   342   351      1
   366   343   352      1
   367   343   353      1
   368   344   345      1
   369   344   354      1
   370   344   355      1
   371   345   346      1
   372   345   356      1
   373   346   357      1
   374   346   358      1
   375   346   362      1
   376   359   360      1
   377   359   364      1
   378   359   366      1
   379   359   367      1
   380   360   361      1
   381   360   368      1
   382   360   369      1
   383   361   362      1
   384   361   363      1
   385   361   370      1
   386   362   371      1
   387   362   372      1
   388   363   364      1
   389   363   373      1
   390   363   374      1
   391   364   365      1
   392   364   375      1
   393   365   376      1
   394   365   377      1
   395   365   381      1
   396   378   379      1
   397   378   383      1
   398   378   385      1
   399   378   386      1
   400   379   380      1
   401   379   387      1
   402   379   388      1
   403   380   381      1
   404   380   382      1
   405   380   389      1
   406   381   390      1
   407   381   391      1
   408   382   383      1
   409   382   392      1
   410   382   393      1
   411   383   384      1
   412   383   394      1
   413   384   395      1
   414   384   396      1
   415   384   397      1
   416   397   398      1
   417   397   399      1
   418   397   400      1
   419   398   401      1
   420   398   402      1
   421   398   406      1
   422   403   404      1
   423   403   408      1
   424   403   410      1
   425   403   411      1
   426   404   405      1
   427   404   412      1
   428   404   413      1
   429   405   406      1
   430   405   407      1
   431   405   414      1
   432   406   415      1
   433   406   416      1
   434   407   408      1
   435   407   417      1
   436   407   418      1
   437   408   409      1
   438   408   419      1
   439   409   420      1
   440   409   421      1
   441   409   425      1
   442   422   423      1
   443   422   427      1
   444   422   429      1
   445   422   430      1
   446   423   424      1
   447   423   431      1
   448   423   432      1
   449   424   425      1
   450   424   426      1
   451   424   433      1
   452   425   434      1
   453   425   435      1
   454   426   427      1
   455   426   436      1
   456   426   437      1
   457   427   428      1
   458   427   438      1
   459   428   439      1
   460   428   440      1
   461   428   444      1
   462   441   442      1
   463   441   446      1
   464   441   448      1
   465   441   449      1
   466   442   443      1
   467   442   450      1
   468   442   451      1
   469   443   444      1
   470   443   445      1
   471   443   452      1
   472   444   453      1
   473   444   454      1
   474   445   446      1
   475   445   455      1
   476   445   456      1
   477   446   447      1
   478   446   457      1
   479   447   458      1
   480   447   459      1
   481   447   463      1
   482   460   461      1
   483   460   465      1
   484   460   467      1
   485   460   468      1
   486   461   462      1
   487   461   469      1
   488   461   470      1
   489   462   463      1
   490   462   464      1
   491   462   471      1
   492   463   472      1
   493   463   473      1
   494   464   465      1
   495   464   474      1
   496   464   475      1
   497   465   466      1
   498   465   476      1
   499   466   477      1
   500   466   478      1
   501   466   479      1
   502   479   480      1
   503   479   481      1
   504   479   482      1
   505   480   483      1
   506   480   484      1
   507   480   488      1
   508   485   486      1
   509   485   490      1
   510   485   492      1
   511   485   493      1
   512   486   487      1
   513   486   494      1
   514   486   495      1
   515   487   488      1
   516   487   489      1
   517   487   496      1
   518   488   497      1
   519   488   498      1
   520   489   490      1
   521   489   499      1
   522   489   500      1
   523   490   491      1
   524   490   501      1
   525   491   502      1
   526   491   503      1
   527   491   507      1
   528   504   505      1
   529   504   509      1
   530   504   511      1
   531   504   512      1
   532   505   506      1
   533   505   513      1
   534   505   514      1
   535   506   507      1
   536   506   508      1
   537   506   515      1
   538   507   516      1
   539   507   517      1
   540   508   509      1
   541   508   518      1
   542   508   519      1
   543   509   510      1
   544   509   520      1
   545   510   521      1
   546   510   522      1
   547   510   526      1
   548   523   524      1
   549   523   528      1
   550   523   530      1
   551   523   531      1
   552   524   525      1
   553   524   532      1
   554   524   533      1
   555   525   526      1
   556   525   527      1
   557   525   534      1
   558   526   535      1
   559   526   536      1
   560   527   528      1
   561   527   537      1
   562   527   538      1
   563   528   529      1
   564   528   539      1
   565   529   540      1
   566   529   541      1
   567   529   545      1
   568   542   543      1
   569   542   547      1
   570   542   549      1
   571   542   550      1
   572   543   544      1
   573   543   551      1
   574   543   552      1
   575   544   545      1
   576   544   546      1
   577   544   553      1
   578   545   554      1
   579   545   555      1
   580   546   547      1
   581   546   556      1
   582   546   557      1
   583   547   548      1
   584   547   558      1
   585   548   559      1
   586   548   560      1
   587   548   564      1
   588   561   562      1
   589   561   566      1
   590   561   568      1
   591   561   569      1
   592   562   563      1
   593   562   570      1
   594   562   571      1
   595   563   564      1
   596   563   565      1
   597   563   572      1
   598   564   573      1
   599   564   574      1
   600   565   566      1
   601   565   575      1
   602   565   576      1
   603   566   567      1
   604   566   577      1
   605   567   578      1
   606   567   579      1
   607   567   583      1
   608   580   581      1
   609   580   585      1
   610   580   587      1
   611   580   588      1
   612   581   582      1
   613   581   589      1
   614   581   590      1
   615   582   583      1
   616   582   584      1
   617   582   591      1
   618   583   592      1
   619   583   593      1
   620   584   585      1
   621   584   594      1
   622   584   595      1
   623   585   586      1
   624   585   596      1
   625   586   597      1
   626   586   598      1
   627   586   602      1
   628   599   600      1
   629   599   604      1
   630   599   606      1
   631   599   607      1
   632   600   601      1
   633   600   608      1
   634   600   609      1
   635   601   602      1
   636   601   603      1
   637   601   610      1
   638   602   611      1
   639   602   612      1
   640   603   604      1
   641   603   613      1
   642   603   614      1
   643   604   605      1
   644   604   615      1
   645   605   616      1
   646   605   617      1
   647   605   621      1
   648   618   619      1
   649   618   623      1
   650   618   625      1
   651   618   626      1
   652   619   620      1
   653   619   627      1
   654   619   628      1
   655   620   621      1
   656   620   622      1
   657   620   629      1
   658   621   630      1
   659   621   631      1
   660   622   623      1
   661   622   632      1
   662   622   633      1
   663   623   624      1
   664   623   634      1
   665   624   635      1
   666   624   636      1
   667   624   640      1
   668   637   638      1
   669   637   642      1
   670   637   644      1
   671   637   645      1
   672   638   639      1
   673   638   646      1
   674   638   647      1
   675   639   640      1
   676   639   641      1
   677   639   648      1
   678   640   649      1
   679   640   650      1
   680   641   642      1
   681   641   651      1
   682   641   652      1
   683   642   643      1
   684   642   653      1
   685   643   654      1
   686   643   655      1
   687   643   659      1
   688   656   657      1
   689   656   661      1
   690   656   663      1
   691   656   664      1
   692   657   658      1
   693   657   665      1
   694   657   666      1
   695   658   659      1
   696   658   660      1
   697   658   667      1
   698   659   668      1
   699   659   669      1
   700   660   661      1
   701   660   670      1
   702   660   671      1
   703   661   662      1
   704   661   672      1
   705   662   673      1
   706   662   674      1
   707   662   675      1
   708   675   676      1
   709   675   677      1
   710   675   678      1
   711   676   679      1
   712   676   680      1
   713   676   684      1
   714   681   682      1
   715   681   686      1
   716   681   688      1
   717   681   689      1
   718   682   683      1
   719   682   690      1
   720   682   691      1
   721   683   684      1
   722   683   685      1
   723   683   692      1
   724   684   693      1
   725   684   694      1
   726   685   686      1
   727   685   695      1
   728   685   696      1
   729   686   687      1
   730   686   697      1
   731   687   698      1
   732   687   699      1
   733   687   703      1
   734   700   701      1
   735   700   705      1
   736   700   707      1
   737   700   708      1
   738   701   702      1
   739   701   709      1
   740   701   710      1
   741   702   703      1
   742   702   704      1
   743   702   711      1
   744   703   712      1
   745   703   713      1
   746   704   705      1
   747   704   714      1
   748   704   715      1
   749   705   706      1
   750   705   716      1
   751   706   717      1
   752   706   718      1
   753   706   722      1
   754   719   720      1
   755   719   724      1
   756   719   726      1
   757   719   727      1
   758   720   721      1
   759   720   728      1
   760   720   729      1
   761   721   722      1
   762   721   723      1
   763   721   730      1
   764   722   731      1
   765   722   732      1
   766   723   724      1
   767   723   733      1
   768   723   734      1
   769   724   725      1
   770   724   735      1
   771   725   736      1
   772   725   737      1
   773   725   741      1
   774   738   739      1
   775   738   743      1
   776   738   745      1
   777   738   746      1
   778   739   740      1
   779   739   747      1
   780   739   748      1
   781   740   741      1
   782   740   742      1
   783   740   749      1
   784   741   750      1
   785   741   751      1
   786   742   743      1
   787   742   752      1
   788   742   753      1
   789   743   744      1
   790   743   754      1
   791   744   755      1
   792   744   756      1
   793   744   760      1
   794   757   758      1
   795   757   762      1
   796   757   764      1
   797   757   765      1
   798   758   759      1
   799   758   766      1
   800   758   767      1
   801   759   760      1
   802   759   761      1
   803   759   768      1
   804   760   769      1
   805   760   770      1
   806   761   762      1
   807   761   771      1
   808   761   772      1
   809   762   763      1
   810   762   773      1
   811   763   774      1
   812   763   775      1
   813   763   779      1
   814   776   777      1
   815   776   781      1
   816   776   783      1
   817   776   784      1
   818   777   778      1
   819   777   785      1
   820   777   786      1
   821   778   779      1
   822   778   780      1
   823   778   787      1
   824   779   788      1
   825   779   789      1
   826   780   781      1
   827   780   790      1
   828   780   791      1
   829   781   782      1
   830   781   792      1
   831   782   793      1
   832   782   794      1
   833   782   795      1
   834   795   796      1
   835   795   797      1
   836   795   798      1
   837   796   799      1
   838   796   800      1
   839   796   804      1
   840   801   802      1
   841   801   806      1
   842   801   808      1
   843   801   809      1
   844   802   803      1
   845   802   810      1
   846   802   811      1
   847   803   804      1
   848   803   805      1
   849   803   812      1
   850   804   813      1
   851   804   814      1
   852   805   806      1
   853   805   815      1
   854   805   816      1
   855   806   807      1
   856   806   817      1
   857   807   818      1
   858   807   819      1
   859   807   823      1
   860   820   821      1
   861   820   825      1
   862   820   827      1
   863   820   828      1
   864   821   822      1
   865   821   829      1
   866   821   830      1
   867   822   823      1
   868   822   824      1
   869   822   831      1
   870   823   832      1
   871   823   833      1
   872   824   825      1
   873   824   834      1
   874   824   835      1
   875   825   826      1
   876   825   836      1
   877   826   837      1
   878   826   838      1
   879   826   839      1
   880   839   840      1
   881   839   841      1
   882   839   842      1
   883   840   843      1
   884   840   844      1
   885   840   848      1
   886   845   846      1
   887   845   850      1
   888   845   852      1
   889   845   853      1
   890   846   847      1
   891   846   854      1
   892   846   855      1
   893   847   848      1
   894   847   849      1
   895   847   856      1
   896   848   857      1
   897   848   858      1
   898   849   850      1
   899   849   859      1
   900   849   860      1
   901   850   851      1
   902   850   861      1
   903   851   862      1
   904   851   863      1
   905   851   867      1
   906   864   865      1
   907   864   869      1
   908   864   871      1
   909   864   872      1
   910   865   866      1
   911   865   873      1
   912   865   874      1
   913   866   867      1
   914   866   868      1
   915   866   875      1
   916   867   876      1
   917   867   877      1
   918   868   869      1
   919   868   878      1
   920   868   879      1
   921   869   870      1
   922   869   880      1
   923   870   881      1
   924   870   882      1
   925   870   883      1
   926   883   884      1
   927   883   885      1
   928   883   886      1
   929   884   887      1
   930   884   888      1
   931   884   892      1
   932   889   890      1
   933   889   894      1
   934   889   896      1
   935   889   897      1
   936   890   891      1
   937   890   898      1
   938   890   899      1
   939   891   892      1
   940   891   893      1
   941   891   900      1
   942   892   901      1
   943   892   902      1
   944   893   894      1
   945   893   903      1
   946   893   904      1
   947   894   895      1
   948   894   905      1
   949   895   906      1
   950   895   907      1
   951   895   908      1
   952   908   909      1
   953   908   910      1
   954   908   911      1
   955   909   912      1
   956   909   913      1
   957   909   917      1
   958   914   915      1
   959   914   919      1
   960   914   921      1
   961   914   922      1
   962   915   916      1
   963   915   923      1
   964   915   924      1
   965   916   917      1
   966   916   918      1
   967   916   925      1
   968   917   926      1
   969   917   927      1
   970   918   919      1
   971   918   928      1
   972   918   929      1
   973   919   920      1
   974   919   930      1
   975   920   931      1
   976   920   932      1
   977   920   936      1
   978   933   934      1
   979   933   938      1
   980   933   940      1
   981   933   941      1
   982   934   935      1
   983   934   942      1
   984   934   943      1
   985   935   936      1
   986   935   937      1
   987   935   944      1
   988   936   945      1
   989   936   946      1
   990   937   938      1
   991   937   947      1
   992   937   948      1
   993   938   939      1
   994   938   949      1
   995   939   950      1
   996   939   951      1
   997   939   955      1
   998   952   953      1
   999   952   957      1
  1000   952   959      1
  1001   952   960      1
  1002   953   954      1
  1003   953   961      1
  1004   953   962      1
  1005   954   955      1
  1006   954   956      1
  1007   954   963      1
  1008   955   964      1
  1009   955   965      1
  1010   956   957      1
  1011   956   966      1
  1012   956   967      1
  1013   957   958      1
  1014   957   968      1
  1015   958   969      1
  1016   958   970      1
  1017   958   971      1
  1018   971   972      1
  1019   971   973      1
  1020   971   974      1
  1021   972   975      1
  1022   972   976      1
  1023   972   980      1
  1024   977   978      1
  1025   977   982      1
  1026   977   984      1
  1027   977   985      1
  1028   978   979      1
  1029   978   986      1
  1030   978   987      1
  1031   979   980      1
  1032   979   981      1
  1033   979   988      1
  1034   980   989      1
  1035   980   990      1
  1036   981   982      1
  1037   981   991      1
  1038   981   992      1
  1039   982   983      1
  1040   982   993      1
  1041   983   994      1
  1042   983   995      1
  1043   983   999      1
  1044   996   997      1
  1045   996  1001      1
  1046   996  1003      1
  1047   996  1004      1
  1048   997   998      1
  1049   997  1005      1
  1050   997  1006      1
  1051   998   999      1
  1052   998  1000      1
  1053   998  1007      1
  1054   999  1008      1
  1055   999  1009      1
  1056  1000  1001      1
  1057  1000  1010      1
  1058  1000  1011      1
  1059  1001  1002      1
  1060  1001  1012      1
  1061  1002  1013      1
  1062  1002  1014      1
  1063  1002  1015      1
  1064  1015  1016      1
  1065  1015  1017      1
  1066  1015  1018      1
  1067  1016  1019      1
  1068  1016  1020      1
  1069  1016  1024      1
  1070  1021  1022      1
  1071  1021  1026      1
  1072  1021  1028      1
  1073  1021  1029      1
  1074  1022  1023      1
  1075  1022  1030      1
  1076  1022  1031      1
  1077  1023  1024      1
  1078  1023  1025      1
  1079  1023  1032      1
  1080  1024  1033      1
  1081  1024  1034      1
  1082  1025  1026      1
  1083  1025  1035      1
  1084  1025  1036      1
  1085  1026  1027      1
  1086  1026  1037      1
  1087  1027  1038      1
  1088  1027  1039      1
  1089  1027  1043      1
  1090  1040  1041      1
  1091  1040  1045      1
  1092  1040  1047      1
  1093  1040  1048      1
  1094  1041  1042      1
  1095  1041  1049      1
  1096  1041  1050      1
  1097  1042  1043      1
  1098  1042  1044      1
  1099  1042  1051      1
  1100  1043  1052      1
  1101  1043  1053      1
  1102  1044  1045      1
  1103  1044  1054      1
  1104  1044  1055      1
  1105  1045  1046      1
  1106  1045  1056      1
  1107  1046  1057      1
  1108  1046  1058      1
  1109  1046  1059      1
  1110  1059  1060      1
  1111  1059  1061      1
  1112  1059  1062      1
  1113  1060  1063      1
  1114  1060  1064      1
  1115  1060  1068      1
  1116  1065  1066      1
  1117  1065  1070      1
  1118  1065  1072      1
  1119  1065  1073      1
  1120  1066  1067      1
  1121  1066  1074      1
  1122  1066  1075      1
  1123  1067  1068      1
  1124  1067  1069      1
  1125  1067  1076      1
  1126  1068  1077      1
  1127  1068  1078      1
  1128  1069  1070      1
  1129  1069  1079      1
  1130  1069  1080      1
  1131  1070  1071      1
  1132  1070  1081      1
  1133  1071  1082      1
  1134  1071  1083      1
  1135  1071  1087      1
  1136  1084  1085      1
  1137  1084  1089      1
  1138  1084  1091      1
  1139  1084  1092      1
  1140  1085  1086      1
  1141  1085  1093      1
  1142  1085  1094      1
  1143  1086  1087      1
  1144  1086  1088      1
  1145  1086  1095      1
  1146  1087  1096      1
  1147  1087  1097      1
  1148  1088  1089      1
  1149  1088  1098      1
  1150  1088  1099      1
  1151  1089  1090      1
  1152  1089  1100      1
  1153  1090  1101      1
  1154  1090  1102      1
  1155  1090  1103      1
  1156  1103  1104      1
  1157  1103  1105      1
  1158  1103  1106      1
  1159  1104  1107      1
  1160  1104  1108      1
  1161  1104  1109      1
  1162  1109  1110      1
  1163  1109  1111      1
  1164  1109  1112      1
  1165  1110  1113      1
  1166  1110  1114      1
  1167  1110  1118      1
  1168  1115  1116      1
  1169  1115  1120      1
  1170  1115  1122      1
  1171  1115  1123      1
  1172  1116  1117      1
  1173  1116  1124      1
  1174  1116  1125      1
  1175  1117  1118      1
  1176  1117  1119      1
  1177  1117  1126      1
  1178  1118  1127      1
  1179  1118  1128      1
  1180  1119  1120      1
  1181  1119  1129      1
  1182  1119  1130      1
  1183  1120  1121      1
  1184  1120  1131      1
  1185  1121  1132      1
  1186  1121  1133      1
  1187  1121  1137      1
  1188  1134  1135      1
  1189  1134  1139      1
  1190  1134  1141      1
  1191  1134  1142      1
  1192  1135  1136      1
  1193  1135  1143      1
  1194  1135  1144      1
  1195  1136  1137      1
  1196  1136  1138      1
  1197  1136  1145      1
  1198  1137  1146      1
  1199  1137  1147      1
  1200  1138  1139      1
  1201  1138  1148      1
  1202  1138  1149      1
  1203  1139  1140      1
  1204  1139  1150      1
  1205  1140  1151      1
  1206  1140  1152      1
  1207  1140  1153      1
  1208  1153  1154      1
  1209  1153  1155      1
  1210  1153  1156      1
  1211  1154  1157      1
  1212  1154  1158      1
  1213  1154  1162      1
  1214  1159  1160      1
  1215  1159  1164      1
  1216  1159  1166      1
  1217  1159  1167      1
  1218  1160  1161      1
  1219  1160  1168      1
  1220  1160  1169      1
  1221  1161  1162      1
  1222  1161  1163      1
  1223  1161  1170      1
  1224  1162  1171      1
  1225  1162  1172      1
  1226  1163  1164      1
  1227  1163  1173      1
  1228  1163  1174      1
  1229  1164  1165      1
  1230  1164  1175      1
  1231  1165  1176      1
  1232  1165  1177      1
  1233  1165  1181      1
  1234  1178  1179      1
  1235  1178  1183      1
  1236  1178  1185      1
  1237  1178  1186      1
  1238  1179  1180      1
  1239  1179  1187      1
  1240  1179  1188      1
  1241  1180  1181      1
  1242  1180  1182      1
  1243  1180  1189      1
  1244  1181  1190      1
  1245  1181  1191      1
  1246  1182  1183      1
  1247  1182  1192      1
  1248  1182  1193      1
  1249  1183  1184      1
  1250  1183  1194      1
  1251  1184  1195      1
  1252  1184  1196      1
  1253  1184  1200      1
  1254  1197  1198      1
  1255  1197  1202      1
  1256  1197  1204      1
  1257  1197  1205      1
  1258  1198  1199      1
  1259  1198  1206      1
  1260  1198  1207      1
  1261  1199  1200      1
  1262  1199  1201      1
  1263  1199  1208      1
  1264  1200  1209      1
  1265  1200  1210      1
  1266  1201  1202      1
  1267  1201  1211      1
  1268  1201  1212      1
  1269  1202  1203      1
  1270  1202  1213      1
  1271  1203  1214      1
  1272  1203  1215      1
  1273  1203  1219      1
  1274  1216  1217      1
  1275  1216  1221      1
  1276  1216  1223      1
  1277  1216  1224      1
  1278  1217  1218      1
  1279  1217  1225      1
  1280  1217  1226      1
  1281  1218  1219      1
  1282  1218  1220      1
  1283  1218  1227      1
  1284  1219  1228      1
  1285  1219  1229      1
  1286  1220  1221      1
  1287  1220  1230      1
  1288  1220  1231      1
  1289  1221  1222      1
  1290  1221  1232      1
  1291  1222  1233      1
  1292  1222  1234      1
  1293  1222  1235      1
  1294  1235  1236      1
  1295  1235  1237      1
  1296  1235  1238      1
  1297  1236  1239      1
  1298  1236  1240      1
  1299  1236  1244      1
  1300  1241  1242      1
  1301  1241  1246      1
  1302  1241  1248      1
  1303  1241  1249      1
  1304  1242  1243      1
  1305  1242  1250      1
  1306  1242  1251      1
  1307  1243  1244      1
  1308  1243  1245      1
  1309  1243  1252      1
  1310  1244  1253      1
  1311  1244  1254      1
  1312  1245  1246      1
  1313  1245  1255      1
  1314  1245  1256      1
  1315  1246  1247      1
  1316  1246  1257      1
  1317  1247  1258      1
  1318  1247  1259      1
  1319  1247  1260      1
  1320  1260  1261      1
  1321  1260  1262      1
  1322  1260  1263      1
  1323  1261  1264      1
  1324  1261  1265      1
  1325  1261  1269      1
  1326  1266  1267      1
  1327  1266  1271      1
  1328  1266  1273      1
  1329  1266  1274      1
  1330  1267  1268      1
  1331  1267  1275      1
  1332  1267  1276      1
  1333  1268  1269      1
  1334  1268  1270      1
  1335  1268  1277      1
  1336  1269  1278      1
  1337  1269  1279      1
  1338  1270  1271      1
  1339  1270  1280      1
  1340  1270  1281      1
  1341  1271  1272      1
  1342  1271  1282      1
  1343  1272  1283      1
  1344  1272  1284      1
  1345  1272  1288      1
  1346  1285  1286      1
  1347  1285  1290      1
  1348  1285  1292      1
  1349  1285  1293      1
  1350  1286  1287      1
  1351  1286  1294      1
  1352  1286  1295      1
  1353  1287  1288      1
  1354  1287  1289      1
  1355  1287  1296      1
  1356  1288  1297      1
  1357  1288  1298      1
  1358  1289  1290      1
  1359  1289  1299      1
  1360  1289  1300      1
  1361  1290  1291      1
  1362  1290  1301      1
  1363  1291  1302      1
  1364  1291  1303      1
  1365  1291  1307      1
  1366  1304  1305      1
  1367  1304  1309      1
  1368  1304  1311      1
  1369  1304  1312      1
  1370  1305  1306      1
  1371  1305  1313      1
  1372  1305  1314      1
  1373  1306  1307      1
  1374  1306  1308      1
  1375  1306  1315      1
  1376  1307  1316      1
  1377  1307  1317      1
  1378  1308  1309      1
  1379  1308  1318      1
  1380  1308  1319      1
  1381  1309  1310      1
  1382  1309  1320      1
  1383  1310  1321      1
  1384  1310  1322      1
  1385  1310  1326      1
  1386  1323  1324      1
  1387  1323  1328      1
  1388  1323  1330      1
  1389  1323  1331      1
  1390  1324  1325      1
  1391  1324  1332      1
  1392  1324  1333      1
  1393  1325  1326      1
  1394  1325  1327      1
  1395  1325  1334      1
  1396  1326  1335      1
  1397  1326  1336      1
  1398  1327  1328      1
  1399  1327  1337      1
  1400  1327  1338      1
  1401  1328  1329      1
  1402  1328  1339      1
  1403  1329  1340      1
  1404  1329  1341      1
  1405  1329  1342      1
  1406  1342  1343      1
  1407  1342  1344      1
  1408  1342  1345      1
  1409  1343  1346      1
  1410  1343  1347      1
  1411  1343  1348      1
  1412  1348  1349      1
  1413  1348  1350      1
  1414  1348  1351      1
  1415  1349  1352      1
  1416  1349  1353      1
  1417  1349  1357      1
  1418  1354  1355      1
  1419  1354  1359      1
  1420  1354  1361      1
  1421  1354  1362      1
  1422  1355  1356      1
  1423  1355  1363      1
  1424  1355  1364      1
  1425  1356  1357      1
  1426  1356  1358      1
  1427  1356  1365      1
  1428  1357  1366      1
  1429  1357  1367      1
  1430  1358  1359      1
  1431  1358  1368      1
  1432  1358  1369      1
  1433  1359  1360      1
  1434  1359  1370      1
  1435  1360  1371      1
  1436  1360  1372      1
  1437  1360  1373      1
  1438  1373  1374      1
  1439  1373  1375      1
  1440  1373  1376      1
  1441  1374  1377      1
  1442  1374  1378      1
  1443  1374  1382      1
  1444  1379  1380      1
  1445  1379  1384      1
  1446  1379  1386      1
  1447  1379  1387      1
  1448  1380  1381      1
  1449  1380  1388      1
  1450  1380  1389      1
  1451  1381  1382      1
  1452  1381  1383      1
  1453  1381  1390      1
  1454  1382  1391      1
  1455  1382  1392      1
  1456  1383  1384      1
  1457  1383  1393      1
  1458  1383  1394      1
  1459  1384  1385      1
  1460  1384  1395      1
  1461  1385  1396      1
  1462  1385  1397      1
  1463  1385  1398      1
  1464  1398  1399      1
  1465  1398  1400      1
  1466  1398  1401      1
  1467  1399  1402      1
  1468  1399  1403      1
  1469  1399  1404      1
  1470  1404  1405      1
  1471  1404  1406      1
  1472  1404  1407      1
  1473  1405  1408      1
  1474  1405  1409      1
  1475  1405  1413      1
  1476  1410  1411      1
  1477  1410  1415      1
  1478  1410  1417      1
  1479  1410  1418      1
  1480  1411  1412      1
  1481  1411  1419      1
  1482  1411  1420      1
  1483  1412  1413      1
  1484  1412  1414      1
  1485  1412  1421      1
  1486  1413  1422      1
  1487  1413  1423      1
  1488  1414  1415      1
  1489  1414  1424      1
  1490  1414  1425      1
  1491  1415  1416      1
  1492  1415  1426      1
  1493  1416  1427      1
  1494  1416  1428      1
  1495  1416  1432      1
  1496  1429  1430      1
  1497  1429  1434      1
  1498  1429  1436      1
  1499  1429  1437      1
  1500  1430  1431      1
  1501  1430  1438      1
  1502  1430  1439      1
  1503  1431  1432      1
  1504  1431  1433      1
  1505  1431  1440      1
  1506  1432  1441      1
  1507  1432  1442      1
  1508  1433  1434      1
  1509  1433  1443      1
  1510  1433  1444      1
  1511  1434  1435      1
  1512  1434  1445      1
  1513  1435  1446      1
  1514  1435  1447      1
  1515  1435  1451      1
  1516  1448  1449      1
  1517  1448  1453      1
  1518  1448  1455      1
  1519  1448  1456      1
  1520  1449  1450      1
  1521  1449  1457      1
  1522  1449  1458      1
  1523  1450  1451      1
  1524  1450  1452      1
  1525  1450  1459      1
  1526  1451  1460      1
  1527  1451  1461      1
  1528  1452  1453      1
  1529  1452  1462      1
  1530  1452  1463      1
  1531  1453  1454      1
  1532  1453  1464      1
  1533  1454  1465      1
  1534  1454  1466      1
  1535  1454  1470      1
  1536  1467  1468      1
  1537  1467  1472      1
  1538  1467  1474      1
  1539  1467  1475      1
  1540  1468  1469      1
  1541  1468  1476      1
  1542  1468  1477      1
  1543  1469  1470      1
  1544  1469  1471      1
  1545  1469  1478      1
  1546  1470  1479      1
  1547  1470  1480      1
  1548  1471  1472      1
  1549  1471  1481      1
  1550  1471  1482      1
  1551  1472  1473      1
  1552  1472  1483      1
  1553  1473  1484      1
  1554  1473  1485      1
  1555  1473  1489      1
  1556  1486  1487      1
  1557  1486  1491      1
  1558  1486  1493      1
  1559  1486  1494      1
  1560  1487  1488      1
  1561  1487  1495      1
  1562  1487  1496      1
  1563  1488  1489      1
  1564  1488  1490      1
  1565  1488  1497      1
  1566  1489  1498      1
  1567  1489  1499      1
  1568  1490  1491      1
  1569  1490  1500      1
  1570  1490  1501      1
  1571  1491  1492      1
  1572  1491  1502      1
  1573  1492  1503      1
  1574  1492  1504      1
  1575  1492  1508      1
  1576  1505  1506      1
  1577  1505  1510      1
  1578  1505  1512      1
  1579  1505  1513      1
  1580  1506  1507      1
  1581  1506  1514      1
  1582  1506  1515      1
  1583  1507  1508      1
  1584  1507  1509      1
  1585  1507  1516      1
  1586  1508  1517      1
  1587  1508  1518      1
  1588  1509  1510      1
  1589  1509  1519      1
  1590  1509  1520      1
  1591  1510  1511      1
  1592  1510  1521      1
  1593  1511  1522      1
  1594  1511  1523      1
  1595  1511  1527      1
  1596  1524  1525      1
  1597  1524  1529      1
  1598  1524  1531      1
  1599  1524  1532      1
  1600  1525  1526      1
  1601  1525  1533      1
  1602  1525  1534      1
  1603  1526  1527      1
  1604  1526  1528      1
  1605  1526  1535      1
  1606  1527  1536      1
  1607  1527  1537      1
  1608  1528  1529      1
  1609  1528  1538      1
  1610  1528  1539      1
  1611  1529  1530      1
  1612  1529  1540      1
  1613  1530  1541      1
  1614  1530  1542      1
  1615  1530  1546      1
  1616  1543  1544      1
  1617  1543  1548      1
  1618  1543  1550      1
  1619  1543  1551      1
  1620  1544  1545      1
  1621  1544  1552      1
  1622  1544  1553      1
  1623  1545  1546      1
  1624  1545  1547      1
  1625  1545  1554      1
  1626  1546  1555      1
  1627  1546  1556      1
  1628  1547  1548      1
  1629  1547  1557      1
  1630  1547  1558      1
  1631  1548  1549      1
  1632  1548  1559      1
  1633  1549  1560      1
  1634  1549  1561      1
  1635  1549  1565      1
  1636  1562  1563      1
  1637  1562  1567      1
  1638  1562  1569      1
  1639  1562  1570      1
  1640  1563  1564      1
  1641  1563  1571      1
  1642  1563  1572      1
  1643  1564  1565      1
  1644  1564  1566      1
  1645  1564  1573      1
  1646  1565  1574      1
  1647  1565  1575      1
  1648  1566  1567      1
  1649  1566  1576      1
  1650  1566  1577      1
  1651  1567  1568      1
  1652  1567  1578      1
  1653  1568  1579      1
  1654  1568  1580      1
  1655  1568  1584      1
  1656  1581  1582      1
  1657  1581  1586      1
  1658  1581  1588      1
  1659  1581  1589      1
  1660  1582  1583      1
  1661  1582  1590      1
  1662  1582  1591      1
  1663  1583  1584      1
  1664  1583  1585      1
  1665  1583  1592      1
  1666  1584  1593      1
  1667  1584  1594      1
  1668  1585  1586      1
  1669  1585  1595      1
  1670  1585  1596      1
  1671  1586  1587      1
  1672  1586  1597      1
  1673  1587  1598      1
  1674  1587  1599      1
  1675  1587  1603      1
  1676  1600  1601      1
  1677  1600  1605      1
  1678  1600  1607      1
  1679  1600  1608      1
  1680  1601  1602      1
  1681  1601  1609      1
  1682  1601  1610      1
  1683  1602  1603      1
  1684  1602  1604      1
  1685  1602  1611      1
  1686  1603  1612      1
  1687  1603  1613      1
  1688  1604  1605      1
  1689  1604  1614      1
  1690  1604  1615      1
  1691  1605  1606      1
  1692  1605  1616      1
  1693  1606  1617      1
  1694  1606  1618      1
  1695  1606  1622      1
  1696  1619  1620      1
  1697  1619  1624      1
  1698  1619  1626      1
  1699  1619  1627      1
  1700  1620  1621      1
  1701  1620  1628      1
  1702  1620  1629      1
  1703  1621  1622      1
  1704  1621  1623      1
  1705  1621  1630      1
  1706  1622  1631      1
  1707  1622  1632      1
  1708  1623  1624      1
  1709  1623  1633      1
  1710  1623  1634      1
  1711  1624  1625      1
  1712  1624  1635      1
  1713  1625  1636      1
  1714  1625  1637      1
  1715  1625  1641      1
  1716  1638  1639      1
  1717  1638  1643      1
  1718  1638  1645      1
  1719  1638  1646      1
  1720  1639  1640      1
  1721  1639  1647      1
  1722  1639  1648      1
  1723  1640  1641      1
  1724  1640  1642      1
  1725  1640  1649      1
  1726  1641  1650      1
  1727  1641  1651      1
  1728  1642  1643      1
  1729  1642  1652      1
  1730  1642  1653      1
  1731  1643  1644      1
  1732  1643  1654      1
  1733  1644  1655      1
  1734  1644  1656      1
  1735  1644  1660      1
  1736  1657  1658      1
  1737  1657  1662      1
  1738  1657  1664      1
  1739  1657  1665      1
  1740  1658  1659      1
  1741  1658  1666      1
  1742  1658  1667      1
  1743  1659  1660      1
  1744  1659  1661      1
  1745  1659  1668      1
  1746  1660  1669      1
  1747  1660  1670      1
  1748  1661  1662      1
  1749  1661  1671      1
  1750  1661  1672      1
  1751  1662  1663      1
  1752  1662  1673      1
  1753  1663  1674      1
  1754  1663  1675      1
  1755  1663  1679      1
  1756  1676  1677      1
  1757  1676  1681      1
  1758  1676  1683      1
  1759  1676  1684      1
  1760  1677  1678      1
  1761  1677  1685      1
  1762  1677  1686      1
  1763  1678  1679      1
  1764  1678  1680      1
  1765  1678  1687      1
  1766  1679  1688      1
  1767  1679  1689      1
  1768  1680  1681      1
  1769  1680  1690      1
  1770  1680  1691      1
  1771  1681  1682      1
  1772  1681  1692      1
  1773  1682  1693      1
  1774  1682  1694      1
  1775  1682  1698      1
  1776  1695  1696      1
  1777  1695  1700      1
  1778  1695  1702      1
  1779  1695  1703      1
  1780  1696  1697      1
  1781  1696  1704      1
  1782  1696  1705      1
  1783  1697  1698      1
  1784  1697  1699      1
  1785  1697  1706      1
  1786  1698  1707      1
  1787  1698  1708      1
  1788  1699  1700      1
  1789  1699  1709      1
  1790  1699  1710      1
  1791  1700  1701      1
  1792  1700  1711      1
  1793  1701  1712      1
  1794  1701  1713      1
  1795  1701  1717      1
  1796  1714  1715      1
  1797  1714  1719      1
  1798  1714  1721      1
  1799  1714  1722      1
  1800  1715  1716      1
  1801  1715  1723      1
  1802  1715  1724      1
  1803  1716  1717      1
  1804  1716  1718      1
  1805  1716  1725      1
  1806  1717  1726      1
  1807  1717  1727      1
  1808  1718  1719      1
  1809  1718  1728      1
  1810  1718  1729      1
  1811  1719  1720      1
  1812  1719  1730      1
  1813  1720  1731      1
  1814  1720  1732      1
  1815  1720  1736      1
  1816  1733  1734      1
  1817  1733  1738      1
  1818  1733  1740      1
  1819  1733  1741      1
  1820  1734  1735      1
  1821  1734  1742      1
  1822  1734  1743      1
  1823  1735  1736      1
  1824  1735  1737      1
  1825  1735  1744      1
  1826  1736  1745      1
  1827  1736  1746      1
  1828  1737  1738      1
  1829  1737  1747      1
  1830  1737  1748      1
  1831  1738  1739      1
  1832  1738  1749      1
  1833  1739  1750      1
  1834  1739  1751      1
  1835  1739  1755      1
  1836  1752  1753      1
  1837  1752  1757      1
  1838  1752  1759      1
  1839  1752  1760      1
  1840  1753  1754      1
  1841  1753  1761      1
  1842  1753  1762      1
  1843  1754  1755      1
  1844  1754  1756      1
  1845  1754  1763      1
  1846  1755  1764      1
  1847  1755  1765      1
  1848  1756  1757      1
  1849  1756  1766      1
  1850  1756  1767      1
  1851  1757  1758      1
  1852  1757  1768      1
  1853  1758  1769      1
  1854  1758  1770      1
  1855  1758  1774      1
  1856  1771  1772      1
  1857  1771  1776      1
  1858  1771  1778      1
  1859  1771  1779      1
  1860  1772  1773      1
  1861  1772  1780      1
  1862  1772  1781      1
  1863  1773  1774      1
  1864  1773  1775      1
  1865  1773  1782      1
  1866  1774  1783      1
  1867  1774  1784      1
  1868  1775  1776      1
  1869  1775  1785      1
  1870  1775  1786      1
  1871  1776  1777      1
  1872  1776  1787      1
  1873  1777  1788      1
  1874  1777  1789      1
  1875  1777  1790      H
