###
### Created by PolyChef-cpp17 on Wed Feb 26 21:14:12 2025
###

@<TRIPOS>MOLECULE
NO_INFO
682 713 1 0 0
SMALL
USER_CHARGES


@<TRIPOS>ATOM
      1 C         174.7613   58.3905  125.1030 C.3       0        0    0.0000
      2 C         175.5817   57.2273  124.5633 C.3       0        0    0.0000
      3 C         176.4261   57.8845  123.4666 C.3       0        0    0.0000
      4 C         177.0675   56.9203  122.4640 C.3       0        0    0.0000
      5 C         175.5222   58.9734  122.8563 C.3       0        0    0.0000
      6 C         174.3373   59.1296  123.8295 C.3       0        0    0.0000
      7 C         173.8372   60.5625  124.0366 C.3       0        0    0.0000
      8 H         173.9005   58.0480  125.6856 H         0        0    0.0000
      9 H         175.3857   59.0137  125.7527 H         0        0    0.0000
     10 H         176.2014   56.7688  125.3402 H         0        0    0.0000
     11 H         174.9131   56.4573  124.1629 H         0        0    0.0000
     12 H         177.2533   58.4067  123.9708 H         0        0    0.0000
     13 H         176.2984   56.2400  122.0794 H         0        0    0.0000
     14 H         177.4406   57.4915  121.6057 H         0        0    0.0000
     15 H         175.1467   58.7072  121.8623 H         0        0    0.0000
     16 H         176.0959   59.8982  122.7321 H         0        0    0.0000
     17 H         173.4973   58.5648  123.3977 H         0        0    0.0000
     18 H         172.7673   60.5373  124.2749 H         0        0    0.0000
     19 H         174.3437   60.9966  124.9068 H         0        0    0.0000
     20 C         174.6317   65.1632  122.6617 C.3       1        0    0.0000
     21 C         174.8528   63.8694  123.4492 C.3       1        0    0.0000
     22 C         173.6623   62.9487  123.1264 C.3       1        0    0.0000
     23 C         174.0553   61.5002  122.8113 C.3       1        0    0.0000
     24 C         172.9594   63.6319  121.9489 C.3       1        0    0.0000
     25 C         173.1746   65.1302  122.1878 C.3       1        0    0.0000
     26 C         172.1887   65.7079  123.2209 C.3       1        0    0.0000
     27 H         174.8837   66.0484  123.2534 H         1        0    0.0000
     28 H         175.2946   65.1618  121.7869 H         1        0    0.0000
     29 H         175.8182   63.4270  123.1799 H         1        0    0.0000
     30 H         174.8809   64.0778  124.5251 H         1        0    0.0000
     31 H         172.9761   62.9582  123.9854 H         1        0    0.0000
     32 H         173.4453   61.1314  121.9781 H         1        0    0.0000
     33 H         175.1009   61.4491  122.4865 H         1        0    0.0000
     34 H         171.9010   63.3586  121.8885 H         1        0    0.0000
     35 H         173.4314   63.3410  121.0014 H         1        0    0.0000
     36 H         173.0697   65.6728  121.2397 H         1        0    0.0000
     37 H         172.2522   66.8010  123.2603 H         1        0    0.0000
     38 H         172.4494   65.3375  124.2195 H         1        0    0.0000
     39 C         170.7214   65.2881  122.9166 C.3       2        0    0.0000
     40 C         169.7381   65.5849  124.0579 C.3       2        0    0.0000
     41 H         170.4040   65.8613  122.0361 H         2        0    0.0000
     42 H         170.6917   64.2305  122.6294 H         2        0    0.0000
     43 H         170.0748   65.1380  125.0008 H         2        0    0.0000
     44 H         169.7171   66.6709  124.2154 H         2        0    0.0000
     45 C         167.8849   62.1214  121.6375 C.3       3        0    0.0000
     46 C         168.8584   63.0886  122.3157 C.3       3        0    0.0000
     47 C         168.1423   64.4486  122.3975 C.3       3        0    0.0000
     48 C         168.2638   65.1420  123.7600 C.3       3        0    0.0000
     49 C         166.6882   64.1374  122.0288 C.3       3        0    0.0000
     50 C         166.7836   62.9891  121.0185 C.3       3        0    0.0000
     51 C         167.1266   63.4817  119.5998 C.3       3        0    0.0000
     52 H         168.3916   61.4713  120.9180 H         3        0    0.0000
     53 H         167.4427   61.4709  122.4030 H         3        0    0.0000
     54 H         169.1486   62.7006  123.2983 H         3        0    0.0000
     55 H         169.7750   63.1858  121.7223 H         3        0    0.0000
     56 H         168.5585   65.1049  121.6198 H         3        0    0.0000
     57 H         167.6237   66.0322  123.7728 H         3        0    0.0000
     58 H         167.9061   64.4820  124.5587 H         3        0    0.0000
     59 H         166.1701   65.0146  121.6278 H         3        0    0.0000
     60 H         166.1333   63.8006  122.9141 H         3        0    0.0000
     61 H         165.8338   62.4400  120.9948 H         3        0    0.0000
     62 H         166.5553   62.9343  118.8419 H         3        0    0.0000
     63 H         168.1876   63.2941  119.3960 H         3        0    0.0000
     64 C         166.8652   65.0074  119.4392 C.3       4        0    0.0000
     65 C         165.4321   65.3531  119.0103 C.3       4        0    0.0000
     66 H         167.0467   65.4649  120.4203 H         4        0    0.0000
     67 H         167.6023   65.4381  118.7514 H         4        0    0.0000
     68 H         165.4170   66.2020  118.3168 H         4        0    0.0000
     69 H         165.0238   64.4937  118.4632 H         4        0    0.0000
     70 C         162.9896   68.1062  121.7878 C.3       5        0    0.0000
     71 C         164.1575   68.0816  120.7981 C.3       5        0    0.0000
     72 C         164.9465   66.7994  121.0850 C.3       5        0    0.0000
     73 C         164.4584   65.6315  120.2075 C.3       5        0    0.0000
     74 C         164.7101   66.6065  122.5884 C.3       5        0    0.0000
     75 C         163.2360   66.9665  122.7904 C.3       5        0    0.0000
     76 C         162.9169   67.3221  124.2469 C.3       5        0    0.0000
     77 H         162.9370   69.0871  122.2738 H         5        0    0.0000
     78 H         162.0385   67.9515  121.2655 H         5        0    0.0000
     79 H         164.7992   68.9516  120.9870 H         5        0    0.0000
     80 H         163.8158   68.1553  119.7606 H         5        0    0.0000
     81 H         166.0136   66.9683  120.8916 H         5        0    0.0000
     82 H         163.4711   65.8768  119.7977 H         5        0    0.0000
     83 H         164.3333   64.7169  120.7969 H         5        0    0.0000
     84 H         165.3511   67.2994  123.1489 H         5        0    0.0000
     85 H         164.9346   65.5952  122.9407 H         5        0    0.0000
     86 H         162.6242   66.1039  122.4910 H         5        0    0.0000
     87 H         162.9310   66.4211  124.8712 H         5        0    0.0000
     88 H         161.9030   67.7349  124.3071 H         5        0    0.0000
     89 C         163.9941   70.6934  127.7880 C.3       6        0    0.0000
     90 C         164.3781   69.3743  127.1127 C.3       6        0    0.0000
     91 C         163.3374   69.1357  126.0107 C.3       6        0    0.0000
     92 C         163.9166   68.3674  124.8196 C.3       6        0    0.0000
     93 C         162.8484   70.5501  125.6815 C.3       6        0    0.0000
     94 C         162.7374   71.1970  127.0661 C.3       6        0    0.0000
     95 C         162.6479   72.7255  127.0509 C.3       6        0    0.0000
     96 H         163.8035   70.5548  128.8577 H         6        0    0.0000
     97 H         164.8227   71.4057  127.6953 H         6        0    0.0000
     98 H         164.3883   68.5459  127.8292 H         6        0    0.0000
     99 H         165.3898   69.4575  126.6979 H         6        0    0.0000
    100 H         162.5018   68.5681  126.4457 H         6        0    0.0000
    101 H         164.8267   67.8432  125.1350 H         6        0    0.0000
    102 H         164.2118   69.0632  124.0255 H         6        0    0.0000
    103 H         161.8876   70.5389  125.1571 H         6        0    0.0000
    104 H         163.5767   71.0821  125.0565 H         6        0    0.0000
    105 H         161.8578   70.7804  127.5784 H         6        0    0.0000
    106 H         163.0438   73.1202  126.1078 H         6        0    0.0000
    107 H         163.2758   73.1328  127.8524 H         6        0    0.0000
    108 C         161.1946   73.2345  127.2550 C.3       7        0    0.0000
    109 C         161.1015   74.7177  127.6407 C.3       7        0    0.0000
    110 H         160.6740   73.0981  126.2985 H         7        0    0.0000
    111 H         160.6799   72.5993  127.9854 H         7        0    0.0000
    112 H         161.7528   74.9503  128.4914 H         7        0    0.0000
    113 H         161.4666   75.3132  126.7941 H         7        0    0.0000
    114 C         159.6428   75.2071  127.9428 C.3       8        0    0.0000
    115 C         159.5710   76.6108  128.5606 C.3       8        0    0.0000
    116 H         159.2126   74.4968  128.6605 H         8        0    0.0000
    117 H         159.0348   75.1402  127.0329 H         8        0    0.0000
    118 H         160.1551   76.6041  129.4898 H         8        0    0.0000
    119 H         160.0327   77.3590  127.9056 H         8        0    0.0000
    120 C         158.1197   77.0658  128.9416 C.3       9        0    0.0000
    121 C         157.8860   78.5779  128.8135 C.3       9        0    0.0000
    122 H         157.4362   76.5559  128.2507 H         9        0    0.0000
    123 H         157.8725   76.7079  129.9480 H         9        0    0.0000
    124 H         158.3958   79.1294  129.6122 H         9        0    0.0000
    125 H         158.3315   78.9123  127.8678 H         9        0    0.0000
    126 C         156.3731   78.9875  128.7710 C.3      10        0    0.0000
    127 C         156.0713   80.1636  127.8312 C.3      10        0    0.0000
    128 H         156.0971   79.2867  129.7902 H        10        0    0.0000
    129 H         155.7603   78.1125  128.5245 H        10        0    0.0000
    130 H         156.2781   81.0948  128.3740 H        10        0    0.0000
    131 H         156.7337   80.1562  126.9576 H        10        0    0.0000
    132 C         153.9056   83.0318  124.8755 C.3      11        0    0.0000
    133 C         154.5840   82.5195  126.1383 C.3      11        0    0.0000
    134 C         154.3656   81.0053  126.0533 C.3      11        0    0.0000
    135 C         154.5772   80.2361  127.3608 C.3      11        0    0.0000
    136 C         152.9822   80.8312  125.3964 C.3      11        0    0.0000
    137 C         152.6103   82.2147  124.8280 C.3      11        0    0.0000
    138 C         151.8907   82.2013  123.4759 C.3      11        0    0.0000
    139 H         153.7115   84.1078  124.9235 H        11        0    0.0000
    140 H         154.5460   82.8400  124.0076 H        11        0    0.0000
    141 H         155.6464   82.7808  126.1663 H        11        0    0.0000
    142 H         154.1028   82.9564  127.0202 H        11        0    0.0000
    143 H         155.1060   80.6159  125.3384 H        11        0    0.0000
    144 H         153.9811   80.7050  128.1526 H        11        0    0.0000
    145 H         154.1955   79.2151  127.2419 H        11        0    0.0000
    146 H         152.2122   80.5075  126.1050 H        11        0    0.0000
    147 H         153.0382   80.0552  124.6254 H        11        0    0.0000
    148 H         151.9160   82.6753  125.5469 H        11        0    0.0000
    149 H         151.2884   83.1127  123.3819 H        11        0    0.0000
    150 H         152.6364   82.2323  122.6726 H        11        0    0.0000
    151 C         149.6238   80.8950  119.7302 C.3      12        0    0.0000
    152 C         150.5986   81.4371  120.7789 C.3      12        0    0.0000
    153 C         149.9391   81.1990  122.1436 C.3      12        0    0.0000
    154 C         150.9672   80.9659  123.2541 C.3      12        0    0.0000
    155 C         149.0065   80.0127  121.8776 C.3      12        0    0.0000
    156 C         148.4159   80.3520  120.5050 C.3      12        0    0.0000
    157 C         147.7467   79.1752  119.7896 C.3      12        0    0.0000
    158 H         149.3194   81.6760  119.0252 H        12        0    0.0000
    159 H         150.1152   80.1058  119.1486 H        12        0    0.0000
    160 H         150.8038   82.5015  120.6221 H        12        0    0.0000
    161 H         151.5548   80.9064  120.6972 H        12        0    0.0000
    162 H         149.3262   82.0794  122.3862 H        12        0    0.0000
    163 H         151.5936   80.1048  122.9925 H        12        0    0.0000
    164 H         150.4615   80.7150  124.1939 H        12        0    0.0000
    165 H         148.2314   79.9216  122.6451 H        12        0    0.0000
    166 H         149.5688   79.0712  121.8414 H        12        0    0.0000
    167 H         147.6914   81.1704  120.6275 H        12        0    0.0000
    168 H         147.1577   78.5834  120.5001 H        12        0    0.0000
    169 H         148.5196   78.5090  119.3878 H        12        0    0.0000
    170 C         146.8348   79.6359  118.6196 C.3      13        0    0.0000
    171 C         147.5594   79.7477  117.2706 C.3      13        0    0.0000
    172 H         146.0430   78.8825  118.5194 H        13        0    0.0000
    173 H         146.3398   80.5773  118.8857 H        13        0    0.0000
    174 H         148.4093   79.0573  117.2160 H        13        0    0.0000
    175 H         146.8586   79.4456  116.4817 H        13        0    0.0000
    176 C         146.4085   84.2415  115.6651 C.3      14        0    0.0000
    177 C         146.4831   82.7178  115.5783 C.3      14        0    0.0000
    178 C         146.8862   82.2157  116.9755 C.3      14        0    0.0000
    179 C         148.0353   81.2003  116.9214 C.3      14        0    0.0000
    180 C         147.2134   83.4897  117.7696 C.3      14        0    0.0000
    181 C         146.3212   84.5763  117.1564 C.3      14        0    0.0000
    182 C         144.8667   84.5574  117.6611 C.3      14        0    0.0000
    183 H         147.3330   84.6660  115.2532 H        14        0    0.0000
    184 H         145.5776   84.6469  115.0794 H        14        0    0.0000
    185 H         147.1876   82.4139  114.7963 H        14        0    0.0000
    186 H         145.5040   82.3054  115.3076 H        14        0    0.0000
    187 H         146.0064   81.7368  117.4283 H        14        0    0.0000
    188 H         148.8399   81.4990  117.6032 H        14        0    0.0000
    189 H         148.4631   81.1913  115.9117 H        14        0    0.0000
    190 H         147.0517   83.3566  118.8438 H        14        0    0.0000
    191 H         148.2660   83.7672  117.6276 H        14        0    0.0000
    192 H         146.7540   85.5683  117.3383 H        14        0    0.0000
    193 H         144.5935   83.5701  118.0488 H        14        0    0.0000
    194 H         144.1909   84.7623  116.8220 H        14        0    0.0000
    195 C         144.6143   85.6330  118.7552 C.3      15        0    0.0000
    196 C         143.4634   86.5958  118.4297 C.3      15        0    0.0000
    197 H         144.3571   85.0940  119.6760 H        15        0    0.0000
    198 H         145.5438   86.1772  118.9598 H        15        0    0.0000
    199 H         142.8714   86.2368  117.5796 H        15        0    0.0000
    200 H         142.7872   86.6227  119.2938 H        15        0    0.0000
    201 C         145.3507   89.6753  115.1910 C.3      16        0    0.0000
    202 C         145.1840   88.3710  115.9692 C.3      16        0    0.0000
    203 C         143.8251   88.4555  116.6855 C.3      16        0    0.0000
    204 C         143.9224   88.0721  118.1680 C.3      16        0    0.0000
    205 C         143.3428   89.8937  116.4411 C.3      16        0    0.0000
    206 C         143.9520   90.2894  115.0900 C.3      16        0    0.0000
    207 C         143.1808   89.7544  113.8696 C.3      16        0    0.0000
    208 H         146.0007   90.3494  115.7635 H        16        0    0.0000
    209 H         145.8266   89.5163  114.2183 H        16        0    0.0000
    210 H         146.0222   88.2287  116.6601 H        16        0    0.0000
    211 H         145.1848   87.5169  115.2818 H        16        0    0.0000
    212 H         143.1349   87.7641  116.1816 H        16        0    0.0000
    213 H         143.3244   88.7583  118.7789 H        16        0    0.0000
    214 H         144.9620   88.1758  118.5013 H        16        0    0.0000
    215 H         142.2513   89.9692  116.4589 H        16        0    0.0000
    216 H         143.7312   90.5631  117.2198 H        16        0    0.0000
    217 H         144.0323   91.3815  115.0167 H        16        0    0.0000
    218 H         143.2001   88.6598  113.8358 H        16        0    0.0000
    219 H         143.6692   90.1047  112.9522 H        16        0    0.0000
    220 C         139.2896   89.1909  111.1522 C.3      17        0    0.0000
    221 C         140.4371   88.8793  112.1165 C.3      17        0    0.0000
    222 C         141.1042   90.2225  112.4404 C.3      17        0    0.0000
    223 C         141.7066   90.2487  113.8478 C.3      17        0    0.0000
    224 C         139.9780   91.2354  112.2089 C.3      17        0    0.0000
    225 C         139.3112   90.7094  110.9335 C.3      17        0    0.0000
    226 C         137.9157   91.2782  110.6619 C.3      17        0    0.0000
    227 H         139.4073   88.6558  110.2038 H        17        0    0.0000
    228 H         138.3415   88.8626  111.5948 H        17        0    0.0000
    229 H         141.1548   88.1813  111.6722 H        17        0    0.0000
    230 H         140.0362   88.4024  113.0190 H        17        0    0.0000
    231 H         141.8945   90.4006  111.6967 H        17        0    0.0000
    232 H         141.1131   89.6047  114.5077 H        17        0    0.0000
    233 H         141.6551   91.2613  114.2647 H        17        0    0.0000
    234 H         140.3625   92.2521  112.0799 H        17        0    0.0000
    235 H         139.2724   91.2373  113.0491 H        17        0    0.0000
    236 H         139.9702   90.9232  110.0794 H        17        0    0.0000
    237 H         137.3404   91.3353  111.5934 H        17        0    0.0000
    238 H         137.3713   90.5987  109.9953 H        17        0    0.0000
    239 C         139.2960   94.3198  106.9456 C.3      18        0    0.0000
    240 C         138.1269   93.5623  107.5799 C.3      18        0    0.0000
    241 C         138.7288   92.6555  108.6683 C.3      18        0    0.0000
    242 C         137.9686   92.6824  110.0000 C.3      18        0    0.0000
    243 C         140.1751   93.1398  108.8122 C.3      18        0    0.0000
    244 C         140.5692   93.6012  107.4050 C.3      18        0    0.0000
    245 C         140.9646   92.4261  106.4906 C.3      18        0    0.0000
    246 H         139.1952   94.3880  105.8583 H        18        0    0.0000
    247 H         139.3030   95.3468  107.3329 H        18        0    0.0000
    248 H         137.3913   94.2713  107.9754 H        18        0    0.0000
    249 H         137.6153   92.9510  106.8273 H        18        0    0.0000
    250 H         138.7504   91.6250  108.2855 H        18        0    0.0000
    251 H         138.4681   93.3736  110.6893 H        18        0    0.0000
    252 H         136.9507   93.0615  109.8522 H        18        0    0.0000
    253 H         140.8329   92.3566  109.2027 H        18        0    0.0000
    254 H         140.2260   93.9907  109.5038 H        18        0    0.0000
    255 H         141.4046   94.3099  107.4706 H        18        0    0.0000
    256 H         140.1548   91.6917  106.4176 H        18        0    0.0000
    257 H         141.8289   91.9056  106.9201 H        18        0    0.0000
    258 C         139.3194   94.5214  102.4081 C.3      19        0    0.0000
    259 C         140.6773   94.4575  103.1118 C.3      19        0    0.0000
    260 C         140.4032   94.0043  104.5570 C.3      19        0    0.0000
    261 C         141.3511   92.9099  105.0629 C.3      19        0    0.0000
    262 C         138.9405   93.5488  104.5435 C.3      19        0    0.0000
    263 C         138.2619   94.4607  103.5157 C.3      19        0    0.0000
    264 C         137.9139   95.8442  104.0970 C.3      19        0    0.0000
    265 H         139.2350   95.4024  101.7648 H        19        0    0.0000
    266 H         139.2146   93.6403  101.7621 H        19        0    0.0000
    267 H         141.3472   93.7787  102.5726 H        19        0    0.0000
    268 H         141.1519   95.4457  103.1154 H        19        0    0.0000
    269 H         140.4813   94.8820  105.2144 H        19        0    0.0000
    270 H         141.3110   92.0514  104.3818 H        19        0    0.0000
    271 H         142.3866   93.2691  105.0606 H        19        0    0.0000
    272 H         138.4822   93.6117  105.5359 H        19        0    0.0000
    273 H         138.8684   92.5052  104.2106 H        19        0    0.0000
    274 H         137.3479   93.9802  103.1443 H        19        0    0.0000
    275 H         138.1332   96.6418  103.3786 H        19        0    0.0000
    276 H         138.5332   96.0334  104.9819 H        19        0    0.0000
    277 C         136.4199   95.9322  104.5238 C.3      20        0    0.0000
    278 C         135.7866   97.3124  104.2971 C.3      20        0    0.0000
    279 H         135.8727   95.2021  103.9137 H        20        0    0.0000
    280 H         136.3141   95.6112  105.5667 H        20        0    0.0000
    281 H         136.1471   98.0422  105.0315 H        20        0    0.0000
    282 H         136.1053   97.6755  103.3115 H        20        0    0.0000
    283 C         132.7455   99.9179  106.3996 C.3      21        0    0.0000
    284 C         134.0280   99.3628  105.7817 C.3      21        0    0.0000
    285 C         133.6274   98.7074  104.4487 C.3      21        0    0.0000
    286 C         134.2187   97.3005  104.2896 C.3      21        0    0.0000
    287 C         132.0914   98.7456  104.4401 C.3      21        0    0.0000
    288 C         131.7235   99.9874  105.2620 C.3      21        0    0.0000
    289 C         131.8254  101.3119  104.4836 C.3      21        0    0.0000
    290 H         132.3877   99.2166  107.1642 H        21        0    0.0000
    291 H         132.9102  100.8799  106.8951 H        21        0    0.0000
    292 H         134.5130   98.6639  106.4718 H        21        0    0.0000
    293 H         134.7399  100.1750  105.5927 H        21        0    0.0000
    294 H         133.9984   99.3457  103.6343 H        21        0    0.0000
    295 H         133.8575   96.8379  103.3638 H        21        0    0.0000
    296 H         133.8732   96.6671  105.1155 H        21        0    0.0000
    297 H         131.6872   98.7680  103.4234 H        21        0    0.0000
    298 H         131.6855   97.8540  104.9356 H        21        0    0.0000
    299 H         130.7096   99.8846  105.6693 H        21        0    0.0000
    300 H         132.5020  101.2185  103.6273 H        21        0    0.0000
    301 H         132.2519  102.0826  105.1371 H        21        0    0.0000
    302 C         127.3253  101.2425  105.8595 C.3      22        0    0.0000
    303 C         128.8119  100.9085  105.7462 C.3      22        0    0.0000
    304 C         129.5006  102.1543  105.1624 C.3      22        0    0.0000
    305 C         130.4359  101.8108  103.9956 C.3      22        0    0.0000
    306 C         128.3480  103.0972  104.7842 C.3      22        0    0.0000
    307 C         127.2272  102.7681  105.7785 C.3      22        0    0.0000
    308 C         127.3972  103.4250  107.1606 C.3      22        0    0.0000
    309 H         126.7962  100.8007  105.0055 H        22        0    0.0000
    310 H         126.8779  100.8260  106.7675 H        22        0    0.0000
    311 H         128.9565  100.0136  105.1309 H        22        0    0.0000
    312 H         129.2275  100.6888  106.7367 H        22        0    0.0000
    313 H         130.0872  102.6224  105.9655 H        22        0    0.0000
    314 H         130.5650  102.6813  103.3420 H        22        0    0.0000
    315 H         129.9793  101.0220  103.3857 H        22        0    0.0000
    316 H         128.6517  104.1482  104.8116 H        22        0    0.0000
    317 H         127.9988  102.8825  103.7658 H        22        0    0.0000
    318 H         126.2540  103.0541  105.3596 H        22        0    0.0000
    319 H         128.4503  103.6393  107.3719 H        22        0    0.0000
    320 H         127.0579  102.7273  107.9359 H        22        0    0.0000
    321 C         123.0355  105.0573  108.3930 C.3      23        0    0.0000
    322 C         124.3162  104.2210  108.4500 C.3      23        0    0.0000
    323 C         125.0628  104.4686  107.1269 C.3      23        0    0.0000
    324 C         126.5647  104.7317  107.2924 C.3      23        0    0.0000
    325 C         124.3296  105.6538  106.4906 C.3      23        0    0.0000
    326 C         122.8713  105.4867  106.9310 C.3      23        0    0.0000
    327 C         122.1147  104.4514  106.0772 C.3      23        0    0.0000
    328 H         122.1750  104.5122  108.7924 H        23        0    0.0000
    329 H         123.1687  105.9501  109.0172 H        23        0    0.0000
    330 H         124.9065  104.4989  109.3302 H        23        0    0.0000
    331 H         124.0728  103.1565  108.5462 H        23        0    0.0000
    332 H         124.9189  103.5912  106.4802 H        23        0    0.0000
    333 H         126.8973  105.4356  106.5202 H        23        0    0.0000
    334 H         126.7663  105.2039  108.2608 H        23        0    0.0000
    335 H         124.4457  105.6713  105.4021 H        23        0    0.0000
    336 H         124.7234  106.6010  106.8813 H        23        0    0.0000
    337 H         122.3564  106.4540  106.8732 H        23        0    0.0000
    338 H         121.4721  103.8189  106.6997 H        23        0    0.0000
    339 H         122.8362  103.7872  105.5866 H        23        0    0.0000
    340 C         118.1074  107.2430  105.2613 C.3      24        0    0.0000
    341 C         118.7972  105.9445  104.8671 C.3      24        0    0.0000
    342 C         120.1814  106.0844  105.5091 C.3      24        0    0.0000
    343 C         121.2541  105.1313  104.9732 C.3      24        0    0.0000
    344 C         120.5208  107.5851  105.4187 C.3      24        0    0.0000
    345 C         119.2032  108.2917  105.0443 C.3      24        0    0.0000
    346 C         118.9630  109.6437  105.7230 C.3      24        0    0.0000
    347 H         117.2232  107.4390  104.6469 H        24        0    0.0000
    348 H         117.7892  107.1899  106.3083 H        24        0    0.0000
    349 H         118.2589  105.0667  105.2378 H        24        0    0.0000
    350 H         118.8546  105.8725  103.7755 H        24        0    0.0000
    351 H         120.0622  105.8514  106.5780 H        24        0    0.0000
    352 H         120.7719  104.3512  104.3722 H        24        0    0.0000
    353 H         121.9190  105.6831  104.2983 H        24        0    0.0000
    354 H         121.2817  107.8046  104.6619 H        24        0    0.0000
    355 H         120.9298  107.9262  106.3758 H        24        0    0.0000
    356 H         119.2466  108.4885  103.9625 H        24        0    0.0000
    357 H         119.3525  110.4415  105.0795 H        24        0    0.0000
    358 H         117.8834  109.8118  105.8148 H        24        0    0.0000
    359 C         118.5309  113.3145  107.8747 C.3      25        0    0.0000
    360 C         119.4560  112.3104  107.2043 C.3      25        0    0.0000
    361 C         119.0998  110.9966  107.9029 C.3      25        0    0.0000
    362 C         119.6119  109.7765  107.1334 C.3      25        0    0.0000
    363 C         117.5693  111.0662  108.0550 C.3      25        0    0.0000
    364 C         117.1984  112.5615  107.9771 C.3      25        0    0.0000
    365 C         116.2458  113.0611  109.0707 C.3      25        0    0.0000
    366 H         118.4361  114.2356  107.2913 H        25        0    0.0000
    367 H         118.9314  113.5811  108.8588 H        25        0    0.0000
    368 H         119.2439  112.2574  106.1295 H        25        0    0.0000
    369 H         120.5100  112.5751  107.3330 H        25        0    0.0000
    370 H         119.5454  111.0095  108.9083 H        25        0    0.0000
    371 H         120.7019  109.8271  107.0262 H        25        0    0.0000
    372 H         119.3942  108.8683  107.7080 H        25        0    0.0000
    373 H         117.0649  110.5306  107.2410 H        25        0    0.0000
    374 H         117.2518  110.5929  108.9901 H        25        0    0.0000
    375 H         116.6740  112.7051  107.0206 H        25        0    0.0000
    376 H         116.7895  113.1170  110.0212 H        25        0    0.0000
    377 H         115.4457  112.3242  109.2095 H        25        0    0.0000
    378 C         113.8301  116.0384  111.6238 C.3      26        0    0.0000
    379 C         114.6384  114.8320  111.1399 C.3      26        0    0.0000
    380 C         114.3521  114.6856  109.6346 C.3      26        0    0.0000
    381 C         115.6013  114.4464  108.7776 C.3      26        0    0.0000
    382 C         113.6242  115.9796  109.2566 C.3      26        0    0.0000
    383 C         112.8255  116.3531  110.5100 C.3      26        0    0.0000
    384 C         111.5154  115.5521  110.6323 C.3      26        0    0.0000
    385 H         113.3665  115.8539  112.5976 H        26        0    0.0000
    386 H         114.5091  116.8918  111.7475 H        26        0    0.0000
    387 H         115.7016  114.9811  111.3584 H        26        0    0.0000
    388 H         114.3233  113.9248  111.6685 H        26        0    0.0000
    389 H         113.6534  113.8481  109.4963 H        26        0    0.0000
    390 H         115.3267  114.4850  107.7167 H        26        0    0.0000
    391 H         116.3378  115.2410  108.9442 H        26        0    0.0000
    392 H         112.9918  115.8510  108.3722 H        26        0    0.0000
    393 H         114.3482  116.7741  109.0339 H        26        0    0.0000
    394 H         112.5973  117.4265  110.4946 H        26        0    0.0000
    395 H         111.0794  115.6568  111.6320 H        26        0    0.0000
    396 H         111.7258  114.4859  110.4865 H        26        0    0.0000
    397 C         110.4695  115.9894  109.5661 C.3      27        0    0.0000
    398 C         110.4965  115.1463  108.2832 C.3      27        0    0.0000
    399 H         109.4802  115.8756  110.0275 H        27        0    0.0000
    400 H         110.5912  117.0563  109.3449 H        27        0    0.0000
    401 H         111.1419  114.2674  108.3970 H        27        0    0.0000
    402 H         109.4818  114.7691  108.1022 H        27        0    0.0000
    403 C         108.5084  118.8085  107.6113 C.3      28        0    0.0000
    404 C         108.7674  117.3156  107.4787 C.3      28        0    0.0000
    405 C         110.1337  117.2489  106.7847 C.3      28        0    0.0000
    406 C         110.9165  115.9479  107.0027 C.3      28        0    0.0000
    407 C         110.8714  118.5413  107.1911 C.3      28        0    0.0000
    408 C         109.8732  119.3569  108.0330 C.3      28        0    0.0000
    409 C         109.9683  120.8733  107.8475 C.3      28        0    0.0000
    410 H         108.1946  119.2266  106.6471 H        28        0    0.0000
    411 H         107.7295  119.0253  108.3487 H        28        0    0.0000
    412 H         108.7865  116.8576  108.4736 H        28        0    0.0000
    413 H         107.9877  116.8160  106.8953 H        28        0    0.0000
    414 H         109.9481  117.3208  105.7026 H        28        0    0.0000
    415 H         110.7852  115.3026  106.1260 H        28        0    0.0000
    416 H         111.9864  116.1797  107.0645 H        28        0    0.0000
    417 H         111.1635  119.0856  106.2844 H        28        0    0.0000
    418 H         111.7899  118.3520  107.7566 H        28        0    0.0000
    419 H         110.0326  119.1064  109.0920 H        28        0    0.0000
    420 H         110.4439  121.1079  106.8878 H        28        0    0.0000
    421 H         108.9579  121.2978  107.8099 H        28        0    0.0000
    422 C         109.9683  124.7112  110.9752 C.3      29        0    0.0000
    423 C         110.9519  123.6332  110.5417 C.3      29        0    0.0000
    424 C         110.2161  122.9430  109.3884 C.3      29        0    0.0000
    425 C         110.7582  121.5660  108.9932 C.3      29        0    0.0000
    426 C         108.7250  122.9839  109.7762 C.3      29        0    0.0000
    427 C         108.6238  123.9768  110.9507 C.3      29        0    0.0000
    428 C         107.3836  124.8757  110.9506 C.3      29        0    0.0000
    429 H         110.2043  125.1041  111.9690 H        29        0    0.0000
    430 H         109.9957  125.5445  110.2645 H        29        0    0.0000
    431 H         111.9092  124.0574  110.2234 H        29        0    0.0000
    432 H         111.1433  122.9497  111.3762 H        29        0    0.0000
    433 H         110.3306  123.5892  108.5050 H        29        0    0.0000
    434 H         111.8060  121.6681  108.6870 H        29        0    0.0000
    435 H         110.7494  120.9114  109.8728 H        29        0    0.0000
    436 H         108.3393  122.0074  110.0881 H        29        0    0.0000
    437 H         108.1295  123.2885  108.9088 H        29        0    0.0000
    438 H         108.5728  123.3742  111.8702 H        29        0    0.0000
    439 H         106.5154  124.2878  110.6299 H        29        0    0.0000
    440 H         107.1795  125.2050  111.9762 H        29        0    0.0000
    441 C         104.1268  127.4770  111.0490 C.3      30        0    0.0000
    442 C         105.0209  126.3662  110.5196 C.3      30        0    0.0000
    443 C         106.3284  127.0976  110.2085 C.3      30        0    0.0000
    444 C         107.5031  126.1316  110.0360 C.3      30        0    0.0000
    445 C         106.4781  128.0918  111.3746 C.3      30        0    0.0000
    446 C         105.0620  128.2895  111.9536 C.3      30        0    0.0000
    447 C         104.6442  129.7468  112.1875 C.3      30        0    0.0000
    448 H         103.2671  127.0821  111.5993 H        30        0    0.0000
    449 H         103.7446  128.0699  110.2111 H        30        0    0.0000
    450 H         105.1699  125.5993  111.2894 H        30        0    0.0000
    451 H         104.5952  125.8847  109.6340 H        30        0    0.0000
    452 H         106.1885  127.6739  109.2823 H        30        0    0.0000
    453 H         107.5787  125.8110  108.9902 H        30        0    0.0000
    454 H         108.4383  126.6524  110.2737 H        30        0    0.0000
    455 H         107.1310  127.6883  112.1586 H        30        0    0.0000
    456 H         106.9357  129.0252  111.0305 H        30        0    0.0000
    457 H         105.0561  127.8036  112.9407 H        30        0    0.0000
    458 H         104.1821  130.1382  111.2735 H        30        0    0.0000
    459 H         105.5421  130.3497  112.3684 H        30        0    0.0000
    460 C         102.3305  133.4241  112.6566 C.3      31        0    0.0000
    461 C         103.3251  132.3117  112.3618 C.3      31        0    0.0000
    462 C         103.2241  131.4046  113.5947 C.3      31        0    0.0000
    463 C         103.6605  129.9504  113.3755 C.3      31        0    0.0000
    464 C         101.7909  131.5915  114.1338 C.3      31        0    0.0000
    465 C         101.1385  132.6698  113.2494 C.3      31        0    0.0000
    466 C         100.1730  133.6027  113.9846 C.3      31        0    0.0000
    467 H         102.7535  134.1292  113.3825 H        31        0    0.0000
    468 H         102.0603  133.9816  111.7546 H        31        0    0.0000
    469 H         103.0326  131.7933  111.4423 H        31        0    0.0000
    470 H         104.3395  132.6977  112.2202 H        31        0    0.0000
    471 H         103.9019  131.8198  114.3553 H        31        0    0.0000
    472 H         104.1353  129.5796  114.2917 H        31        0    0.0000
    473 H         102.7713  129.3307  113.2097 H        31        0    0.0000
    474 H         101.8429  131.9150  115.1808 H        31        0    0.0000
    475 H         101.2016  130.6686  114.1162 H        31        0    0.0000
    476 H         100.6076  132.1655  112.4289 H        31        0    0.0000
    477 H         100.3935  133.6049  115.0587 H        31        0    0.0000
    478 H         100.3217  134.6299  113.6308 H        31        0    0.0000
    479 C          98.6843  133.2110  113.7682 C.3      32        0    0.0000
    480 C          97.6944  134.3566  114.0235 C.3      32        0    0.0000
    481 H          98.5868  132.9042  112.7190 H        32        0    0.0000
    482 H          98.4417  132.3313  114.3758 H        32        0    0.0000
    483 H          97.6817  134.6445  115.0813 H        32        0    0.0000
    484 H          98.0388  135.2353  113.4633 H        32        0    0.0000
    485 C          95.5943  137.6550  113.8710 C.3      33        0    0.0000
    486 C          95.5474  136.4411  112.9443 C.3      33        0    0.0000
    487 C          95.2745  135.2166  113.8349 C.3      33        0    0.0000
    488 C          96.2334  134.0557  113.5402 C.3      33        0    0.0000
    489 C          95.3622  135.7515  115.2727 C.3      33        0    0.0000
    490 C          94.9224  137.2178  115.1752 C.3      33        0    0.0000
    491 C          93.3964  137.4166  115.1253 C.3      33        0    0.0000
    492 H          96.6433  137.9075  114.0721 H        33        0    0.0000
    493 H          95.1308  138.5369  113.4178 H        33        0    0.0000
    494 H          96.4812  136.3567  112.3778 H        33        0    0.0000
    495 H          94.7369  136.5527  112.2144 H        33        0    0.0000
    496 H          94.2433  134.8859  113.6464 H        33        0    0.0000
    497 H          96.2388  133.8290  112.4677 H        33        0    0.0000
    498 H          95.8780  133.1535  114.0525 H        33        0    0.0000
    499 H          94.7521  135.1651  115.9666 H        33        0    0.0000
    500 H          96.3989  135.7109  115.6315 H        33        0    0.0000
    501 H          95.3346  137.7929  116.0141 H        33        0    0.0000
    502 H          92.9560  137.3646  116.1268 H        33        0    0.0000
    503 H          92.9456  136.6042  114.5424 H        33        0    0.0000
    504 C          89.8231  139.8185  116.1872 C.3      34        0    0.0000
    505 C          91.1347  139.0493  116.1496 C.3      34        0    0.0000
    506 C          91.5328  139.1226  114.6741 C.3      34        0    0.0000
    507 C          93.0047  138.7638  114.4550 C.3      34        0    0.0000
    508 C          91.1514  140.5564  114.2629 C.3      34        0    0.0000
    509 C          90.0890  141.0252  115.2782 C.3      34        0    0.0000
    510 C          88.8397  141.6756  114.6707 C.3      34        0    0.0000
    511 H          89.5573  140.1235  117.2042 H        34        0    0.0000
    512 H          89.0156  139.1841  115.8060 H        34        0    0.0000
    513 H          91.8812  139.5402  116.7859 H        34        0    0.0000
    514 H          91.0148  138.0180  116.4953 H        34        0    0.0000
    515 H          90.8973  138.4236  114.1109 H        34        0    0.0000
    516 H          93.2254  138.7111  113.3823 H        34        0    0.0000
    517 H          93.6367  139.5591  114.8675 H        34        0    0.0000
    518 H          92.0172  141.2282  114.3166 H        34        0    0.0000
    519 H          90.7959  140.5800  113.2274 H        34        0    0.0000
    520 H          90.5680  141.7962  115.9000 H        34        0    0.0000
    521 H          89.1261  142.2265  113.7669 H        34        0    0.0000
    522 H          88.4444  142.4152  115.3771 H        34        0    0.0000
    523 C          86.1114  141.7118  111.0530 C.3      35        0    0.0000
    524 C          87.2180  141.8454  112.1025 C.3      35        0    0.0000
    525 C          86.6347  141.3043  113.4145 C.3      35        0    0.0000
    526 C          87.7044  140.6745  114.3109 C.3      35        0    0.0000
    527 C          85.5483  140.3342  112.9387 C.3      35        0    0.0000
    528 C          84.9056  141.0956  111.7746 C.3      35        0    0.0000
    529 C          84.0487  140.2332  110.8437 C.3      35        0    0.0000
    530 H          85.8539  142.6830  110.6170 H        35        0    0.0000
    531 H          86.4600  141.0705  110.2346 H        35        0    0.0000
    532 H          87.5390  142.8865  112.2153 H        35        0    0.0000
    533 H          88.0943  141.2678  111.7846 H        35        0    0.0000
    534 H          86.1524  142.1384  113.9447 H        35        0    0.0000
    535 H          88.1484  139.8145  113.7953 H        35        0    0.0000
    536 H          87.2508  140.2908  115.2323 H        35        0    0.0000
    537 H          84.8253  140.1100  113.7295 H        35        0    0.0000
    538 H          85.9881  139.3895  112.5952 H        35        0    0.0000
    539 H          84.2967  141.9144  112.1847 H        35        0    0.0000
    540 H          84.6311  139.9249  109.9677 H        35        0    0.0000
    541 H          83.2076  140.8295  110.4703 H        35        0    0.0000
    542 C          80.4392  138.5461  109.3234 C.3      36        0    0.0000
    543 C          81.9270  138.8200  109.4934 C.3      36        0    0.0000
    544 C          82.1788  138.4428  110.9569 C.3      36        0    0.0000
    545 C          83.4834  138.9749  111.5578 C.3      36        0    0.0000
    546 C          80.8917  138.8403  111.7057 C.3      36        0    0.0000
    547 C          79.8379  139.1118  110.6142 C.3      36        0    0.0000
    548 C          78.4161  138.6428  110.9378 C.3      36        0    0.0000
    549 H          80.0329  139.0341  108.4321 H        36        0    0.0000
    550 H          80.2700  137.4679  109.2279 H        36        0    0.0000
    551 H          82.5337  138.2238  108.8048 H        36        0    0.0000
    552 H          82.1329  139.8783  109.2992 H        36        0    0.0000
    553 H          82.2413  137.3448  110.9971 H        36        0    0.0000
    554 H          83.3192  139.2139  112.6152 H        36        0    0.0000
    555 H          84.2411  138.1828  111.5279 H        36        0    0.0000
    556 H          81.0179  139.7360  112.3234 H        36        0    0.0000
    557 H          80.6007  138.0336  112.3871 H        36        0    0.0000
    558 H          79.7860  140.2040  110.4899 H        36        0    0.0000
    559 H          77.7157  139.4642  110.7452 H        36        0    0.0000
    560 H          78.1429  137.8294  110.2552 H        36        0    0.0000
    561 C          75.5218  136.1006  113.9116 C.3      37        0    0.0000
    562 C          76.3634  136.3818  112.6644 C.3      37        0    0.0000
    563 C          76.7472  137.8714  112.7191 C.3      37        0    0.0000
    564 C          78.2216  138.1525  112.4040 C.3      37        0    0.0000
    565 C          76.3580  138.3144  114.1331 C.3      37        0    0.0000
    566 C          75.1269  137.4692  114.4771 C.3      37        0    0.0000
    567 C          73.8352  138.0318  113.8540 C.3      37        0    0.0000
    568 H          74.6692  135.4517  113.6898 H        37        0    0.0000
    569 H          76.1442  135.5739  114.6463 H        37        0    0.0000
    570 H          77.2349  135.7182  112.6429 H        37        0    0.0000
    571 H          75.7808  136.1807  111.7577 H        37        0    0.0000
    572 H          76.1147  138.4170  112.0043 H        37        0    0.0000
    573 H          78.5966  138.9278  113.0828 H        37        0    0.0000
    574 H          78.8282  137.2565  112.5791 H        37        0    0.0000
    575 H          76.1635  139.3905  114.1868 H        37        0    0.0000
    576 H          77.1664  138.0880  114.8404 H        37        0    0.0000
    577 H          75.0121  137.4127  115.5670 H        37        0    0.0000
    578 H          73.0972  137.2390  113.6896 H        37        0    0.0000
    579 H          74.0629  138.4637  112.8722 H        37        0    0.0000
    580 C          69.4833  139.2527  114.0394 C.3      38        0    0.0000
    581 C          70.8260  138.5515  113.9011 C.3      38        0    0.0000
    582 C          71.8406  139.6479  114.2495 C.3      38        0    0.0000
    583 C          73.2051  139.1463  114.7388 C.3      38        0    0.0000
    584 C          71.1055  140.6073  115.2080 C.3      38        0    0.0000
    585 C          69.6608  140.0850  115.3110 C.3      38        0    0.0000
    586 C          68.5938  141.1748  115.4411 C.3      38        0    0.0000
    587 H          69.2985  139.8942  113.1691 H        38        0    0.0000
    588 H          68.6562  138.5412  114.1226 H        38        0    0.0000
    589 H          70.8724  137.7087  114.5992 H        38        0    0.0000
    590 H          70.9794  138.1584  112.8912 H        38        0    0.0000
    591 H          72.0320  140.2137  113.3255 H        38        0    0.0000
    592 H          73.9002  139.9933  114.7840 H        38        0    0.0000
    593 H          73.1020  138.7697  115.7634 H        38        0    0.0000
    594 H          71.1321  141.6207  114.7885 H        38        0    0.0000
    595 H          71.5682  140.6623  116.1991 H        38        0    0.0000
    596 H          69.6013  139.4087  116.1762 H        38        0    0.0000
    597 H          67.8204  140.8640  116.1534 H        38        0    0.0000
    598 H          69.0518  142.0831  115.8504 H        38        0    0.0000
    599 C          67.0740  138.0161  112.8865 C.3      39        0    0.0000
    600 C          67.5521  138.9611  113.9800 C.3      39        0    0.0000
    601 C          67.2175  140.3426  113.4081 C.3      39        0    0.0000
    602 C          67.9270  141.5219  114.0804 C.3      39        0    0.0000
    603 C          67.4346  140.2157  111.8875 C.3      39        0    0.0000
    604 C          67.5543  138.7053  111.6051 C.3      39        0    0.0000
    605 C          66.8936  138.2211  110.3109 C.3      39        0    0.0000
    606 H          67.4986  137.0135  112.9981 H        39        0    0.0000
    607 H          65.9825  137.9293  112.9236 H        39        0    0.0000
    608 H          67.0440  138.7758  114.9314 H        39        0    0.0000
    609 H          68.6283  138.8300  114.1379 H        39        0    0.0000
    610 H          66.1389  140.4984  113.5612 H        39        0    0.0000
    611 H          68.6944  141.9122  113.4015 H        39        0    0.0000
    612 H          67.2049  142.3317  114.2385 H        39        0    0.0000
    613 H          68.3408  140.7254  111.5429 H        39        0    0.0000
    614 H          66.5973  140.6828  111.3580 H        39        0    0.0000
    615 H          68.6285  138.4861  111.5085 H        39        0    0.0000
    616 H          66.9266  139.0275  109.5687 H        39        0    0.0000
    617 H          67.4783  137.3899  109.8992 H        39        0    0.0000
    618 C          63.2291  140.1377  112.3045 C.3      40        0    0.0000
    619 C          64.6386  139.8434  111.7852 C.3      40        0    0.0000
    620 C          64.7899  138.3117  111.7667 C.3      40        0    0.0000
    621 C          65.4157  137.7574  110.4809 C.3      40        0    0.0000
    622 C          63.3702  137.7848  111.9988 C.3      40        0    0.0000
    623 C          62.7162  138.8274  112.9118 C.3      40        0    0.0000
    624 C          63.1151  138.6477  114.3889 C.3      40        0    0.0000
    625 H          63.2197  140.9810  113.0015 H        40        0    0.0000
    626 H          62.5907  140.4149  111.4558 H        40        0    0.0000
    627 H          64.7763  140.2966  110.7973 H        40        0    0.0000
    628 H          65.3901  140.2835  112.4510 H        40        0    0.0000
    629 H          65.4085  138.0159  112.6262 H        40        0    0.0000
    630 H          65.3961  136.6615  110.5107 H        40        0    0.0000
    631 H          64.8284  138.0620  109.6071 H        40        0    0.0000
    632 H          63.3716  136.7800  112.4336 H        40        0    0.0000
    633 H          62.8215  137.7344  111.0494 H        40        0    0.0000
    634 H          61.6245  138.7654  112.8183 H        40        0    0.0000
    635 H          63.3094  139.6143  114.8667 H        40        0    0.0000
    636 H          64.0458  138.0709  114.4468 H        40        0    0.0000
    637 C          59.7827  134.9498  114.8273 C.3      41        0    0.0000
    638 C          61.1908  135.4439  115.1677 C.3      41        0    0.0000
    639 C          61.4039  136.7460  114.3751 C.3      41        0    0.0000
    640 C          62.0225  137.8860  115.1937 C.3      41        0    0.0000
    641 C          60.0124  137.1000  113.8407 C.3      41        0    0.0000
    642 C          59.3374  135.7461  113.5959 C.3      41        0    0.0000
    643 C          59.7766  135.1023  112.2672 C.3      41        0    0.0000
    644 H          59.7547  133.8652  114.6856 H        41        0    0.0000
    645 H          59.1145  135.1818  115.6666 H        41        0    0.0000
    646 H          61.2876  135.5837  116.2500 H        41        0    0.0000
    647 H          61.9387  134.7000  114.8691 H        41        0    0.0000
    648 H          62.0533  136.5246  113.5161 H        41        0    0.0000
    649 H          61.2377  138.5982  115.4752 H        41        0    0.0000
    650 H          62.4502  137.4996  116.1260 H        41        0    0.0000
    651 H          60.0646  137.7183  112.9387 H        41        0    0.0000
    652 H          59.4449  137.6607  114.5946 H        41        0    0.0000
    653 H          58.2473  135.8729  113.5975 H        41        0    0.0000
    654 H          59.0728  134.3237  111.9530 H        41        0    0.0000
    655 H          60.7500  134.6159  112.4027 H        41        0    0.0000
    656 C          59.2764  138.5193  113.8687 C.3      42        0    0.0000
    657 C          60.3256  137.9203  112.9332 C.3      42        0    0.0000
    658 C          59.6014  137.5783  111.6196 C.3      42        0    0.0000
    659 C          59.9168  136.1580  111.1324 C.3      42        0    0.0000
    660 C          58.1140  137.8219  111.9182 C.3      42        0    0.0000
    661 C          58.1013  138.9308  112.9780 C.3      42        0    0.0000
    662 C          58.2861  140.3494  112.4089 C.3      42        0    0.0000
    663 H          58.9434  137.7443  114.5709 H        42        0    0.0000
    664 H          59.6794  139.3440  114.4648 H        42        0    0.0000
    665 H          60.7991  137.0488  113.3985 H        42        0    0.0000
    666 H          61.1189  138.6510  112.7362 H        42        0    0.0000
    667 H          59.9284  138.2992  110.8570 H        42        0    0.0000
    668 H          60.9281  136.1154  110.7116 H        42        0    0.0000
    669 H          59.2260  135.8909  110.3236 H        42        0    0.0000
    670 H          57.5518  138.0830  111.0163 H        42        0    0.0000
    671 H          57.6570  136.9171  112.3398 H        42        0    0.0000
    672 H          57.1686  138.8915  113.5553 H        42        0    0.0000
    673 H          59.2522  140.7730  112.7035 H        42        0    0.0000
    674 H          57.5149  141.0086  112.8256 H        42        0    0.0000
    675 C          58.1571  140.3784  110.8596 C.3      43        0    0.0000
    676 C          57.1948  141.4530  110.3337 C.3      43        0    0.0000
    677 H          59.1574  140.5933  110.4624 H        43        0    0.0000
    678 H          57.8817  139.3825  110.4931 H        43        0    0.0000
    679 H          57.2161  142.3501  110.9634 H        43        0    0.0000
    680 H          57.5390  141.7604  109.3379 H        43        0    0.0000
    681 H          56.1668  141.1091  110.2189 H        43        0    0.0000
    682 H         177.8861   56.3280  122.8729 H         0        0    0.0000
@<TRIPOS>BOND
     1     1     2      1
     2     1     6      1
     3     1     8      1
     4     1     9      1
     5     2     3      1
     6     2    10      1
     7     2    11      1
     8     3     4      1
     9     3     5      1
    10     3    12      1
    11     4    13      1
    12     4    14      1
    13     4   682      H
    14     5     6      1
    15     5    15      1
    16     5    16      1
    17     6     7      1
    18     6    17      1
    19     7    18      1
    20     7    19      1
    21     7    23      1
    22    20    21      1
    23    20    25      1
    24    20    27      1
    25    20    28      1
    26    21    22      1
    27    21    29      1
    28    21    30      1
    29    22    23      1
    30    22    24      1
    31    22    31      1
    32    23    32      1
    33    23    33      1
    34    24    25      1
    35    24    34      1
    36    24    35      1
    37    25    26      1
    38    25    36      1
    39    26    37      1
    40    26    38      1
    41    26    39      1
    42    39    40      1
    43    39    41      1
    44    39    42      1
    45    40    43      1
    46    40    44      1
    47    40    48      1
    48    45    46      1
    49    45    50      1
    50    45    52      1
    51    45    53      1
    52    46    47      1
    53    46    54      1
    54    46    55      1
    55    47    48      1
    56    47    49      1
    57    47    56      1
    58    48    57      1
    59    48    58      1
    60    49    50      1
    61    49    59      1
    62    49    60      1
    63    50    51      1
    64    50    61      1
    65    51    62      1
    66    51    63      1
    67    51    64      1
    68    64    65      1
    69    64    66      1
    70    64    67      1
    71    65    68      1
    72    65    69      1
    73    65    73      1
    74    70    71      1
    75    70    75      1
    76    70    77      1
    77    70    78      1
    78    71    72      1
    79    71    79      1
    80    71    80      1
    81    72    73      1
    82    72    74      1
    83    72    81      1
    84    73    82      1
    85    73    83      1
    86    74    75      1
    87    74    84      1
    88    74    85      1
    89    75    76      1
    90    75    86      1
    91    76    87      1
    92    76    88      1
    93    76    92      1
    94    89    90      1
    95    89    94      1
    96    89    96      1
    97    89    97      1
    98    90    91      1
    99    90    98      1
   100    90    99      1
   101    91    92      1
   102    91    93      1
   103    91   100      1
   104    92   101      1
   105    92   102      1
   106    93    94      1
   107    93   103      1
   108    93   104      1
   109    94    95      1
   110    94   105      1
   111    95   106      1
   112    95   107      1
   113    95   108      1
   114   108   109      1
   115   108   110      1
   116   108   111      1
   117   109   112      1
   118   109   113      1
   119   109   114      1
   120   114   115      1
   121   114   116      1
   122   114   117      1
   123   115   118      1
   124   115   119      1
   125   115   120      1
   126   120   121      1
   127   120   122      1
   128   120   123      1
   129   121   124      1
   130   121   125      1
   131   121   126      1
   132   126   127      1
   133   126   128      1
   134   126   129      1
   135   127   130      1
   136   127   131      1
   137   127   135      1
   138   132   133      1
   139   132   137      1
   140   132   139      1
   141   132   140      1
   142   133   134      1
   143   133   141      1
   144   133   142      1
   145   134   135      1
   146   134   136      1
   147   134   143      1
   148   135   144      1
   149   135   145      1
   150   136   137      1
   151   136   146      1
   152   136   147      1
   153   137   138      1
   154   137   148      1
   155   138   149      1
   156   138   150      1
   157   138   154      1
   158   151   152      1
   159   151   156      1
   160   151   158      1
   161   151   159      1
   162   152   153      1
   163   152   160      1
   164   152   161      1
   165   153   154      1
   166   153   155      1
   167   153   162      1
   168   154   163      1
   169   154   164      1
   170   155   156      1
   171   155   165      1
   172   155   166      1
   173   156   157      1
   174   156   167      1
   175   157   168      1
   176   157   169      1
   177   157   170      1
   178   170   171      1
   179   170   172      1
   180   170   173      1
   181   171   174      1
   182   171   175      1
   183   171   179      1
   184   176   177      1
   185   176   181      1
   186   176   183      1
   187   176   184      1
   188   177   178      1
   189   177   185      1
   190   177   186      1
   191   178   179      1
   192   178   180      1
   193   178   187      1
   194   179   188      1
   195   179   189      1
   196   180   181      1
   197   180   190      1
   198   180   191      1
   199   181   182      1
   200   181   192      1
   201   182   193      1
   202   182   194      1
   203   182   195      1
   204   195   196      1
   205   195   197      1
   206   195   198      1
   207   196   199      1
   208   196   200      1
   209   196   204      1
   210   201   202      1
   211   201   206      1
   212   201   208      1
   213   201   209      1
   214   202   203      1
   215   202   210      1
   216   202   211      1
   217   203   204      1
   218   203   205      1
   219   203   212      1
   220   204   213      1
   221   204   214      1
   222   205   206      1
   223   205   215      1
   224   205   216      1
   225   206   207      1
   226   206   217      1
   227   207   218      1
   228   207   219      1
   229   207   223      1
   230   220   221      1
   231   220   225      1
   232   220   227      1
   233   220   228      1
   234   221   222      1
   235   221   229      1
   236   221   230      1
   237   222   223      1
   238   222   224      1
   239   222   231      1
   240   223   232      1
   241   223   233      1
   242   224   225      1
   243   224   234      1
   244   224   235      1
   245   225   226      1
   246   225   236      1
   247   226   237      1
   248   226   238      1
   249   226   242      1
   250   239   240      1
   251   239   244      1
   252   239   246      1
   253   239   247      1
   254   240   241      1
   255   240   248      1
   256   240   249      1
   257   241   242      1
   258   241   243      1
   259   241   250      1
   260   242   251      1
   261   242   252      1
   262   243   244      1
   263   243   253      1
   264   243   254      1
   265   244   245      1
   266   244   255      1
   267   245   256      1
   268   245   257      1
   269   245   261      1
   270   258   259      1
   271   258   263      1
   272   258   265      1
   273   258   266      1
   274   259   260      1
   275   259   267      1
   276   259   268      1
   277   260   261      1
   278   260   262      1
   279   260   269      1
   280   261   270      1
   281   261   271      1
   282   262   263      1
   283   262   272      1
   284   262   273      1
   285   263   264      1
   286   263   274      1
   287   264   275      1
   288   264   276      1
   289   264   277      1
   290   277   278      1
   291   277   279      1
   292   277   280      1
   293   278   281      1
   294   278   282      1
   295   278   286      1
   296   283   284      1
   297   283   288      1
   298   283   290      1
   299   283   291      1
   300   284   285      1
   301   284   292      1
   302   284   293      1
   303   285   286      1
   304   285   287      1
   305   285   294      1
   306   286   295      1
   307   286   296      1
   308   287   288      1
   309   287   297      1
   310   287   298      1
   311   288   289      1
   312   288   299      1
   313   289   300      1
   314   289   301      1
   315   289   305      1
   316   302   303      1
   317   302   307      1
   318   302   309      1
   319   302   310      1
   320   303   304      1
   321   303   311      1
   322   303   312      1
   323   304   305      1
   324   304   306      1
   325   304   313      1
   326   305   314      1
   327   305   315      1
   328   306   307      1
   329   306   316      1
   330   306   317      1
   331   307   308      1
   332   307   318      1
   333   308   319      1
   334   308   320      1
   335   308   324      1
   336   321   322      1
   337   321   326      1
   338   321   328      1
   339   321   329      1
   340   322   323      1
   341   322   330      1
   342   322   331      1
   343   323   324      1
   344   323   325      1
   345   323   332      1
   346   324   333      1
   347   324   334      1
   348   325   326      1
   349   325   335      1
   350   325   336      1
   351   326   327      1
   352   326   337      1
   353   327   338      1
   354   327   339      1
   355   327   343      1
   356   340   341      1
   357   340   345      1
   358   340   347      1
   359   340   348      1
   360   341   342      1
   361   341   349      1
   362   341   350      1
   363   342   343      1
   364   342   344      1
   365   342   351      1
   366   343   352      1
   367   343   353      1
   368   344   345      1
   369   344   354      1
   370   344   355      1
   371   345   346      1
   372   345   356      1
   373   346   357      1
   374   346   358      1
   375   346   362      1
   376   359   360      1
   377   359   364      1
   378   359   366      1
   379   359   367      1
   380   360   361      1
   381   360   368      1
   382   360   369      1
   383   361   362      1
   384   361   363      1
   385   361   370      1
   386   362   371      1
   387   362   372      1
   388   363   364      1
   389   363   373      1
   390   363   374      1
   391   364   365      1
   392   364   375      1
   393   365   376      1
   394   365   377      1
   395   365   381      1
   396   378   379      1
   397   378   383      1
   398   378   385      1
   399   378   386      1
   400   379   380      1
   401   379   387      1
   402   379   388      1
   403   380   381      1
   404   380   382      1
   405   380   389      1
   406   381   390      1
   407   381   391      1
   408   382   383      1
   409   382   392      1
   410   382   393      1
   411   383   384      1
   412   383   394      1
   413   384   395      1
   414   384   396      1
   415   384   397      1
   416   397   398      1
   417   397   399      1
   418   397   400      1
   419   398   401      1
   420   398   402      1
   421   398   406      1
   422   403   404      1
   423   403   408      1
   424   403   410      1
   425   403   411      1
   426   404   405      1
   427   404   412      1
   428   404   413      1
   429   405   406      1
   430   405   407      1
   431   405   414      1
   432   406   415      1
   433   406   416      1
   434   407   408      1
   435   407   417      1
   436   407   418      1
   437   408   409      1
   438   408   419      1
   439   409   420      1
   440   409   421      1
   441   409   425      1
   442   422   423      1
   443   422   427      1
   444   422   429      1
   445   422   430      1
   446   423   424      1
   447   423   431      1
   448   423   432      1
   449   424   425      1
   450   424   426      1
   451   424   433      1
   452   425   434      1
   453   425   435      1
   454   426   427      1
   455   426   436      1
   456   426   437      1
   457   427   428      1
   458   427   438      1
   459   428   439      1
   460   428   440      1
   461   428   444      1
   462   441   442      1
   463   441   446      1
   464   441   448      1
   465   441   449      1
   466   442   443      1
   467   442   450      1
   468   442   451      1
   469   443   444      1
   470   443   445      1
   471   443   452      1
   472   444   453      1
   473   444   454      1
   474   445   446      1
   475   445   455      1
   476   445   456      1
   477   446   447      1
   478   446   457      1
   479   447   458      1
   480   447   459      1
   481   447   463      1
   482   460   461      1
   483   460   465      1
   484   460   467      1
   485   460   468      1
   486   461   462      1
   487   461   469      1
   488   461   470      1
   489   462   463      1
   490   462   464      1
   491   462   471      1
   492   463   472      1
   493   463   473      1
   494   464   465      1
   495   464   474      1
   496   464   475      1
   497   465   466      1
   498   465   476      1
   499   466   477      1
   500   466   478      1
   501   466   479      1
   502   479   480      1
   503   479   481      1
   504   479   482      1
   505   480   483      1
   506   480   484      1
   507   480   488      1
   508   485   486      1
   509   485   490      1
   510   485   492      1
   511   485   493      1
   512   486   487      1
   513   486   494      1
   514   486   495      1
   515   487   488      1
   516   487   489      1
   517   487   496      1
   518   488   497      1
   519   488   498      1
   520   489   490      1
   521   489   499      1
   522   489   500      1
   523   490   491      1
   524   490   501      1
   525   491   502      1
   526   491   503      1
   527   491   507      1
   528   504   505      1
   529   504   509      1
   530   504   511      1
   531   504   512      1
   532   505   506      1
   533   505   513      1
   534   505   514      1
   535   506   507      1
   536   506   508      1
   537   506   515      1
   538   507   516      1
   539   507   517      1
   540   508   509      1
   541   508   518      1
   542   508   519      1
   543   509   510      1
   544   509   520      1
   545   510   521      1
   546   510   522      1
   547   510   526      1
   548   523   524      1
   549   523   528      1
   550   523   530      1
   551   523   531      1
   552   524   525      1
   553   524   532      1
   554   524   533      1
   555   525   526      1
   556   525   527      1
   557   525   534      1
   558   526   535      1
   559   526   536      1
   560   527   528      1
   561   527   537      1
   562   527   538      1
   563   528   529      1
   564   528   539      1
   565   529   540      1
   566   529   541      1
   567   529   545      1
   568   542   543      1
   569   542   547      1
   570   542   549      1
   571   542   550      1
   572   543   544      1
   573   543   551      1
   574   543   552      1
   575   544   545      1
   576   544   546      1
   577   544   553      1
   578   545   554      1
   579   545   555      1
   580   546   547      1
   581   546   556      1
   582   546   557      1
   583   547   548      1
   584   547   558      1
   585   548   559      1
   586   548   560      1
   587   548   564      1
   588   561   562      1
   589   561   566      1
   590   561   568      1
   591   561   569      1
   592   562   563      1
   593   562   570      1
   594   562   571      1
   595   563   564      1
   596   563   565      1
   597   563   572      1
   598   564   573      1
   599   564   574      1
   600   565   566      1
   601   565   575      1
   602   565   576      1
   603   566   567      1
   604   566   577      1
   605   567   578      1
   606   567   579      1
   607   567   583      1
   608   580   581      1
   609   580   585      1
   610   580   587      1
   611   580   588      1
   612   581   582      1
   613   581   589      1
   614   581   590      1
   615   582   583      1
   616   582   584      1
   617   582   591      1
   618   583   592      1
   619   583   593      1
   620   584   585      1
   621   584   594      1
   622   584   595      1
   623   585   586      1
   624   585   596      1
   625   586   597      1
   626   586   598      1
   627   586   602      1
   628   599   600      1
   629   599   604      1
   630   599   606      1
   631   599   607      1
   632   600   601      1
   633   600   608      1
   634   600   609      1
   635   601   602      1
   636   601   603      1
   637   601   610      1
   638   602   611      1
   639   602   612      1
   640   603   604      1
   641   603   613      1
   642   603   614      1
   643   604   605      1
   644   604   615      1
   645   605   616      1
   646   605   617      1
   647   605   621      1
   648   618   619      1
   649   618   623      1
   650   618   625      1
   651   618   626      1
   652   619   620      1
   653   619   627      1
   654   619   628      1
   655   620   621      1
   656   620   622      1
   657   620   629      1
   658   621   630      1
   659   621   631      1
   660   622   623      1
   661   622   632      1
   662   622   633      1
   663   623   624      1
   664   623   634      1
   665   624   635      1
   666   624   636      1
   667   624   640      1
   668   637   638      1
   669   637   642      1
   670   637   644      1
   671   637   645      1
   672   638   639      1
   673   638   646      1
   674   638   647      1
   675   639   640      1
   676   639   641      1
   677   639   648      1
   678   640   649      1
   679   640   650      1
   680   641   642      1
   681   641   651      1
   682   641   652      1
   683   642   643      1
   684   642   653      1
   685   643   654      1
   686   643   655      1
   687   643   659      1
   688   656   657      1
   689   656   661      1
   690   656   663      1
   691   656   664      1
   692   657   658      1
   693   657   665      1
   694   657   666      1
   695   658   659      1
   696   658   660      1
   697   658   667      1
   698   659   668      1
   699   659   669      1
   700   660   661      1
   701   660   670      1
   702   660   671      1
   703   661   662      1
   704   661   672      1
   705   662   673      1
   706   662   674      1
   707   662   675      1
   708   675   676      1
   709   675   677      1
   710   675   678      1
   711   676   679      1
   712   676   680      1
   713   676   681      H
