###
### Created by PolyChef-cpp17 on Wed Feb 26 21:14:12 2025
###

@<TRIPOS>MOLECULE
NO_INFO
840 879 1 0 0
SMALL
USER_CHARGES


@<TRIPOS>ATOM
      1 C         118.7967  239.2443  169.3582 C.3       0        0    0.0000
      2 C         118.6353  240.7294  169.0652 C.3       0        0    0.0000
      3 C         120.0732  241.2523  169.1477 C.3       0        0    0.0000
      4 C         120.2133  242.7704  169.2950 C.3       0        0    0.0000
      5 C         120.7476  240.4126  170.2502 C.3       0        0    0.0000
      6 C         119.7947  239.2319  170.5208 C.3       0        0    0.0000
      7 C         120.4722  237.8850  170.7912 C.3       0        0    0.0000
      8 H         117.8455  238.7751  169.6277 H         0        0    0.0000
      9 H         119.1895  238.7330  168.4724 H         0        0    0.0000
     10 H         118.1894  240.9059  168.0815 H         0        0    0.0000
     11 H         117.9864  241.1871  169.8200 H         0        0    0.0000
     12 H         120.5651  240.9836  168.2006 H         0        0    0.0000
     13 H         120.0014  243.0504  170.3338 H         0        0    0.0000
     14 H         121.2536  243.0552  169.0980 H         0        0    0.0000
     15 H         120.9059  240.9749  171.1768 H         0        0    0.0000
     16 H         121.7383  240.0911  169.9111 H         0        0    0.0000
     17 H         119.2284  239.4849  171.4298 H         0        0    0.0000
     18 H         119.7901  237.2509  171.3699 H         0        0    0.0000
     19 H         120.6453  237.3730  169.8373 H         0        0    0.0000
     20 C         123.0036  235.3974  169.1765 C.3       1        0    0.0000
     21 C         122.1606  235.6998  170.4178 C.3       1        0    0.0000
     22 C         122.8163  236.9072  171.1117 C.3       1        0    0.0000
     23 C         121.8262  237.9913  171.5552 C.3       1        0    0.0000
     24 C         123.8334  237.4282  170.0913 C.3       1        0    0.0000
     25 C         124.3125  236.1754  169.3501 C.3       1        0    0.0000
     26 C         125.3795  235.3962  170.1422 C.3       1        0    0.0000
     27 H         123.1448  234.3221  169.0321 H         1        0    0.0000
     28 H         122.4760  235.7742  168.2909 H         1        0    0.0000
     29 H         121.1210  235.8883  170.1281 H         1        0    0.0000
     30 H         122.1568  234.8381  171.0955 H         1        0    0.0000
     31 H         123.3693  236.5424  171.9891 H         1        0    0.0000
     32 H         121.6292  237.8860  172.6287 H         1        0    0.0000
     33 H         122.2581  238.9878  171.4077 H         1        0    0.0000
     34 H         124.6504  237.9774  170.5704 H         1        0    0.0000
     35 H         123.3474  238.1098  169.3813 H         1        0    0.0000
     36 H         124.7196  236.4600  168.3715 H         1        0    0.0000
     37 H         124.9569  234.9641  171.0560 H         1        0    0.0000
     38 H         126.1756  236.0831  170.4533 H         1        0    0.0000
     39 C         126.0222  234.2655  169.2875 C.3       2        0    0.0000
     40 C         127.5388  234.1234  169.4800 C.3       2        0    0.0000
     41 H         125.5498  233.3252  169.5994 H         2        0    0.0000
     42 H         125.7659  234.4097  168.2314 H         2        0    0.0000
     43 H         128.0122  235.0974  169.6508 H         2        0    0.0000
     44 H         127.7128  233.5270  170.3848 H         2        0    0.0000
     45 C         126.6304  231.1408  165.8377 C.3       3        0    0.0000
     46 C         126.4405  232.2621  166.8623 C.3       3        0    0.0000
     47 C         127.5445  232.0834  167.9199 C.3       3        0    0.0000
     48 C         128.2637  233.3826  168.3033 C.3       3        0    0.0000
     49 C         128.4950  231.0489  167.3089 C.3       3        0    0.0000
     50 C         127.5872  230.1319  166.4821 C.3       3        0    0.0000
     51 C         126.8662  229.0822  167.3490 C.3       3        0    0.0000
     52 H         125.6752  230.7072  165.5267 H         3        0    0.0000
     53 H         127.1012  231.5597  164.9391 H         3        0    0.0000
     54 H         126.4825  233.2366  166.3636 H         3        0    0.0000
     55 H         125.4550  232.1830  167.3361 H         3        0    0.0000
     56 H         127.0921  231.6420  168.8195 H         3        0    0.0000
     57 H         129.2887  233.1514  168.6167 H         3        0    0.0000
     58 H         128.3392  234.0488  167.4361 H         3        0    0.0000
     59 H         129.0606  230.5087  168.0751 H         3        0    0.0000
     60 H         129.2195  231.5400  166.6466 H         3        0    0.0000
     61 H         128.1810  229.6237  165.7117 H         3        0    0.0000
     62 H         125.9876  228.6791  166.8334 H         3        0    0.0000
     63 H         126.5056  229.5562  168.2697 H         3        0    0.0000
     64 C         127.8124  227.9120  167.7454 C.3       4        0    0.0000
     65 C         127.2593  227.0127  168.8602 C.3       4        0    0.0000
     66 H         127.9483  227.2962  166.8471 H         4        0    0.0000
     67 H         128.8008  228.3083  168.0062 H         4        0    0.0000
     68 H         126.9039  227.6053  169.7113 H         4        0    0.0000
     69 H         126.3866  226.4775  168.4643 H         4        0    0.0000
     70 C         127.4937  225.1176  172.4469 C.3       5        0    0.0000
     71 C         127.7290  226.4746  171.7780 C.3       5        0    0.0000
     72 C         128.8443  226.2662  170.7477 C.3       5        0    0.0000
     73 C         128.2699  225.9231  169.3602 C.3       5        0    0.0000
     74 C         129.6688  225.1430  171.3893 C.3       5        0    0.0000
     75 C         128.6227  224.1885  171.9707 C.3       5        0    0.0000
     76 C         129.2029  223.2828  173.0629 C.3       5        0    0.0000
     77 H         127.4827  225.2388  173.5360 H         5        0    0.0000
     78 H         126.5193  224.7085  172.1562 H         5        0    0.0000
     79 H         128.0677  227.1895  172.5387 H         5        0    0.0000
     80 H         126.8101  226.8810  171.3435 H         5        0    0.0000
     81 H         129.4506  227.1776  170.6665 H         5        0    0.0000
     82 H         127.7414  224.9638  169.4163 H         5        0    0.0000
     83 H         129.0674  225.7975  168.6201 H         5        0    0.0000
     84 H         130.2897  225.5614  172.1922 H         5        0    0.0000
     85 H         130.3383  224.6359  170.6882 H         5        0    0.0000
     86 H         128.2345  223.5616  171.1557 H         5        0    0.0000
     87 H         128.6079  222.3667  173.1544 H         5        0    0.0000
     88 H         129.1465  223.7965  174.0298 H         5        0    0.0000
     89 C         130.5935  219.2639  173.7305 C.3       6        0    0.0000
     90 C         129.9691  220.6617  173.7290 C.3       6        0    0.0000
     91 C         131.1253  221.6496  173.5259 C.3       6        0    0.0000
     92 C         130.6872  222.9128  172.7796 C.3       6        0    0.0000
     93 C         132.1775  220.8088  172.7951 C.3       6        0    0.0000
     94 C         132.1010  219.4655  173.5282 C.3       6        0    0.0000
     95 C         132.7501  218.2949  172.7844 C.3       6        0    0.0000
     96 H         130.3902  218.7357  174.6683 H         6        0    0.0000
     97 H         130.1561  218.6679  172.9206 H         6        0    0.0000
     98 H         129.4394  220.8644  174.6661 H         6        0    0.0000
     99 H         129.2339  220.7322  172.9185 H         6        0    0.0000
    100 H         131.5202  221.9230  174.5153 H         6        0    0.0000
    101 H         130.8078  222.7562  171.7010 H         6        0    0.0000
    102 H         131.3318  223.7573  173.0504 H         6        0    0.0000
    103 H         133.1750  221.2545  172.8610 H         6        0    0.0000
    104 H         131.9205  220.6929  171.7347 H         6        0    0.0000
    105 H         132.5674  219.5788  174.5177 H         6        0    0.0000
    106 H         133.4718  218.6659  172.0474 H         6        0    0.0000
    107 H         131.9801  217.7493  172.2259 H         6        0    0.0000
    108 C         133.4581  217.3027  173.7473 C.3       7        0    0.0000
    109 C         134.1788  216.1491  173.0351 C.3       7        0    0.0000
    110 H         134.2074  217.8808  174.3032 H         7        0    0.0000
    111 H         132.7396  216.9286  174.4861 H         7        0    0.0000
    112 H         134.0893  215.2137  173.5998 H         7        0    0.0000
    113 H         133.6830  215.9818  172.0704 H         7        0    0.0000
    114 C         135.6886  216.4363  172.7243 C.3       8        0    0.0000
    115 C         136.4950  215.1874  172.3403 C.3       8        0    0.0000
    116 H         136.1261  216.8561  173.6391 H         8        0    0.0000
    117 H         135.7660  217.2133  171.9547 H         8        0    0.0000
    118 H         136.5176  214.5165  173.2086 H         8        0    0.0000
    119 H         136.0096  214.6332  171.5285 H         8        0    0.0000
    120 C         137.9867  215.4846  171.9591 C.3       9        0    0.0000
    121 C         138.5929  214.4728  170.9762 C.3       9        0    0.0000
    122 H         138.0009  216.4730  171.4821 H         9        0    0.0000
    123 H         138.5913  215.5674  172.8698 H         9        0    0.0000
    124 H         138.6424  213.4698  171.4162 H         9        0    0.0000
    125 H         137.9268  214.4015  170.1069 H         9        0    0.0000
    126 C         140.0055  214.8812  170.4317 C.3      10        0    0.0000
    127 C         141.1023  213.8408  170.7001 C.3      10        0    0.0000
    128 H         140.2856  215.8109  170.9435 H        10        0    0.0000
    129 H         139.9350  215.1201  169.3641 H        10        0    0.0000
    130 H         140.8151  213.2649  171.5892 H        10        0    0.0000
    131 H         141.1823  213.1237  169.8746 H        10        0    0.0000
    132 C         142.2356  217.0726  173.7471 C.3      11        0    0.0000
    133 C         141.6301  216.3263  172.5665 C.3      11        0    0.0000
    134 C         142.6120  215.1696  172.3534 C.3      11        0    0.0000
    135 C         142.5106  214.4622  170.9986 C.3      11        0    0.0000
    136 C         143.9989  215.7456  172.7000 C.3      11        0    0.0000
    137 C         143.7308  217.0857  173.4126 C.3      11        0    0.0000
    138 C         144.6637  217.4091  174.5836 C.3      11        0    0.0000
    139 H         141.8272  218.0832  173.8449 H        11        0    0.0000
    140 H         142.0257  216.5295  174.6752 H        11        0    0.0000
    141 H         140.6176  215.9717  172.7829 H        11        0    0.0000
    142 H         141.5795  216.9897  171.6961 H        11        0    0.0000
    143 H         142.3840  214.4126  173.1190 H        11        0    0.0000
    144 H         142.7567  215.1754  170.2030 H        11        0    0.0000
    145 H         143.2636  213.6665  170.9525 H        11        0    0.0000
    146 H         144.6209  215.9195  171.8153 H        11        0    0.0000
    147 H         144.5455  215.0323  173.3263 H        11        0    0.0000
    148 H         143.8831  217.8777  172.6638 H        11        0    0.0000
    149 H         144.6799  218.4944  174.7392 H        11        0    0.0000
    150 H         144.2561  216.9656  175.4997 H        11        0    0.0000
    151 C         146.6194  216.9751  170.6544 C.3      12        0    0.0000
    152 C         145.7359  217.1644  171.8903 C.3      12        0    0.0000
    153 C         146.3634  216.3139  173.0026 C.3      12        0    0.0000
    154 C         146.1272  216.9088  174.3936 C.3      12        0    0.0000
    155 C         147.8356  216.2278  172.5865 C.3      12        0    0.0000
    156 C         147.7439  216.0181  171.0714 C.3      12        0    0.0000
    157 C         149.0460  216.2834  170.3106 C.3      12        0    0.0000
    158 H         146.0487  216.5676  169.8131 H        12        0    0.0000
    159 H         147.0164  217.9468  170.3373 H        12        0    0.0000
    160 H         144.7033  216.8557  171.6951 H        12        0    0.0000
    161 H         145.7116  218.2263  172.1625 H        12        0    0.0000
    162 H         145.9251  215.3065  172.9521 H        12        0    0.0000
    163 H         146.8076  217.7552  174.5456 H        12        0    0.0000
    164 H         146.3637  216.1701  175.1683 H        12        0    0.0000
    165 H         148.3533  215.4010  173.0832 H        12        0    0.0000
    166 H         148.3658  217.1588  172.8230 H        12        0    0.0000
    167 H         147.4068  214.9890  170.8795 H        12        0    0.0000
    168 H         149.4047  217.2993  170.5136 H        12        0    0.0000
    169 H         148.8535  216.2257  169.2326 H        12        0    0.0000
    170 C         150.1588  215.2607  170.6691 C.3      13        0    0.0000
    171 C         151.0644  214.8845  169.4878 C.3      13        0    0.0000
    172 H         150.7829  215.7293  171.4408 H        13        0    0.0000
    173 H         149.7098  214.3714  171.1266 H        13        0    0.0000
    174 H         150.4821  214.7320  168.5715 H        13        0    0.0000
    175 H         151.7393  215.7280  169.2939 H        13        0    0.0000
    176 C         153.9143  213.0522  172.8115 C.3      14        0    0.0000
    177 C         153.1129  214.0640  171.9940 C.3      14        0    0.0000
    178 C         152.0332  213.2670  171.2417 C.3      14        0    0.0000
    179 C         151.9699  213.6321  169.7528 C.3      14        0    0.0000
    180 C         152.3759  211.7936  171.5110 C.3      14        0    0.0000
    181 C         153.0497  211.7913  172.8891 C.3      14        0    0.0000
    182 C         152.0658  211.8460  174.0722 C.3      14        0    0.0000
    183 H         154.8440  212.8203  172.2763 H        14        0    0.0000
    184 H         154.1962  213.4468  173.7928 H        14        0    0.0000
    185 H         153.7747  214.6233  171.3236 H        14        0    0.0000
    186 H         152.6352  214.7942  172.6578 H        14        0    0.0000
    187 H         151.0630  213.4917  171.7069 H        14        0    0.0000
    188 H         151.6033  212.7811  169.1671 H        14        0    0.0000
    189 H         152.9813  213.8531  169.3909 H        14        0    0.0000
    190 H         151.4912  211.1512  171.4641 H        14        0    0.0000
    191 H         153.0893  211.4255  170.7621 H        14        0    0.0000
    192 H         153.6927  210.9081  172.9942 H        14        0    0.0000
    193 H         151.3159  212.6314  173.9294 H        14        0    0.0000
    194 H         152.6152  212.1001  174.9868 H        14        0    0.0000
    195 C         151.3533  210.4833  174.3025 C.3      15        0    0.0000
    196 C         151.4369  209.9720  175.7479 C.3      15        0    0.0000
    197 H         150.2946  210.6336  174.0553 H        15        0    0.0000
    198 H         151.7382  209.7406  173.5939 H        15        0    0.0000
    199 H         151.7570  210.7652  176.4336 H        15        0    0.0000
    200 H         150.4285  209.6736  176.0623 H        15        0    0.0000
    201 C         154.1952  210.1267  173.0803 C.3      16        0    0.0000
    202 C         153.9034  210.2325  174.5764 C.3      16        0    0.0000
    203 C         153.6302  208.8027  175.0745 C.3      16        0    0.0000
    204 C         152.3574  208.7153  175.9269 C.3      16        0    0.0000
    205 C         153.5902  207.9455  173.8000 C.3      16        0    0.0000
    206 C         154.5296  208.6561  172.8175 C.3      16        0    0.0000
    207 C         156.0231  208.3607  173.0471 C.3      16        0    0.0000
    208 H         153.2895  210.3965  172.5222 H        16        0    0.0000
    209 H         154.9858  210.8151  172.7655 H        16        0    0.0000
    210 H         153.0643  210.9139  174.7546 H        16        0    0.0000
    211 H         154.7714  210.6458  175.1034 H        16        0    0.0000
    212 H         154.4902  208.4874  175.6821 H        16        0    0.0000
    213 H         152.6154  208.5947  176.9855 H        16        0    0.0000
    214 H         151.7876  207.8244  175.6366 H        16        0    0.0000
    215 H         153.8771  206.9075  173.9945 H        16        0    0.0000
    216 H         152.5755  207.9330  173.3811 H        16        0    0.0000
    217 H         154.2643  208.3956  171.7849 H        16        0    0.0000
    218 H         156.3619  208.7526  174.0122 H        16        0    0.0000
    219 H         156.6144  208.8709  172.2770 H        16        0    0.0000
    220 C         153.7319  204.9971  170.9539 C.3      17        0    0.0000
    221 C         154.4019  206.2992  171.4005 C.3      17        0    0.0000
    222 C         155.0783  205.9966  172.7440 C.3      17        0    0.0000
    223 C         156.3369  206.8400  172.9651 C.3      17        0    0.0000
    224 C         155.3257  204.4859  172.6770 C.3      17        0    0.0000
    225 C         154.0312  203.9621  172.0462 C.3      17        0    0.0000
    226 C         154.1231  202.5385  171.4897 C.3      17        0    0.0000
    227 H         152.6524  205.1275  170.8214 H        17        0    0.0000
    228 H         154.1430  204.6886  169.9852 H        17        0    0.0000
    229 H         153.6729  207.1102  171.5016 H        17        0    0.0000
    230 H         155.1326  206.6116  170.6448 H        17        0    0.0000
    231 H         154.3529  206.1980  173.5458 H        17        0    0.0000
    232 H         157.0352  206.6723  172.1364 H        17        0    0.0000
    233 H         156.8509  206.5236  173.8803 H        17        0    0.0000
    234 H         155.5008  204.0557  173.6682 H        17        0    0.0000
    235 H         156.1919  204.2573  172.0435 H        17        0    0.0000
    236 H         153.2290  204.0144  172.7968 H        17        0    0.0000
    237 H         153.7295  202.5039  170.4671 H        17        0    0.0000
    238 H         153.4945  201.8727  172.0930 H        17        0    0.0000
    239 C         156.6672  201.5131  167.9881 C.3      18        0    0.0000
    240 C         155.4900  201.7587  168.9350 C.3      18        0    0.0000
    241 C         155.8649  201.1116  170.2803 C.3      18        0    0.0000
    242 C         155.5769  201.9916  171.5029 C.3      18        0    0.0000
    243 C         157.3531  200.7754  170.1409 C.3      18        0    0.0000
    244 C         157.5358  200.4419  168.6564 C.3      18        0    0.0000
    245 C         157.0931  199.0057  168.3182 C.3      18        0    0.0000
    246 H         156.3315  201.2449  166.9818 H        18        0    0.0000
    247 H         157.2467  202.4408  167.8970 H        18        0    0.0000
    248 H         155.2948  202.8335  169.0194 H        18        0    0.0000
    249 H         154.5791  201.2942  168.5397 H        18        0    0.0000
    250 H         155.3093  200.1677  170.3757 H        18        0    0.0000
    251 H         155.7184  201.4016  172.4164 H        18        0    0.0000
    252 H         156.2866  202.8255  171.5502 H        18        0    0.0000
    253 H         157.6517  199.9547  170.8011 H        18        0    0.0000
    254 H         157.9675  201.6480  170.3981 H        18        0    0.0000
    255 H         158.5885  200.5751  168.3763 H        18        0    0.0000
    256 H         157.2707  198.7752  167.2619 H        18        0    0.0000
    257 H         156.0144  198.9078  168.4886 H        18        0    0.0000
    258 C         157.5716  195.6964  166.2686 C.3      19        0    0.0000
    259 C         156.8186  196.4176  167.3892 C.3      19        0    0.0000
    260 C         157.8056  196.5607  168.5615 C.3      19        0    0.0000
    261 C         157.8207  197.9532  169.2041 C.3      19        0    0.0000
    262 C         159.1643  196.1783  167.9657 C.3      19        0    0.0000
    263 C         158.8375  195.1172  166.9095 C.3      19        0    0.0000
    264 C         158.6202  193.7222  167.5258 C.3      19        0    0.0000
    265 H         156.9456  194.9483  165.7730 H        19        0    0.0000
    266 H         157.8587  196.4317  165.5059 H        19        0    0.0000
    267 H         156.4433  197.3817  167.0286 H        19        0    0.0000
    268 H         155.9491  195.8291  167.7046 H        19        0    0.0000
    269 H         157.5453  195.8135  169.3248 H        19        0    0.0000
    270 H         157.3171  197.9096  170.1771 H        19        0    0.0000
    271 H         158.8508  198.2763  169.3936 H        19        0    0.0000
    272 H         159.8603  195.8174  168.7300 H        19        0    0.0000
    273 H         159.6268  197.0475  167.4802 H        19        0    0.0000
    274 H         159.6498  195.0687  166.1731 H        19        0    0.0000
    275 H         157.8886  193.7591  168.3404 H        19        0    0.0000
    276 H         159.5620  193.3652  167.9593 H        19        0    0.0000
    277 C         158.1540  192.6869  166.4615 C.3      20        0    0.0000
    278 C         158.9573  191.3785  166.4701 C.3      20        0    0.0000
    279 H         157.1081  192.4458  166.6910 H        20        0    0.0000
    280 H         158.1579  193.1509  165.4682 H        20        0    0.0000
    281 H         159.9543  191.5254  166.9017 H        20        0    0.0000
    282 H         158.4364  190.6635  167.1198 H        20        0    0.0000
    283 C         161.8515  188.6392  163.8074 C.3      21        0    0.0000
    284 C         161.4094  189.6656  164.8492 C.3      21        0    0.0000
    285 C         159.9153  189.4107  165.1131 C.3      21        0    0.0000
    286 C         159.0857  190.7004  165.0621 C.3      21        0    0.0000
    287 C         159.5069  188.3618  164.0674 C.3      21        0    0.0000
    288 C         160.7800  187.5458  163.8096 C.3      21        0    0.0000
    289 C         161.0654  186.4694  164.8727 C.3      21        0    0.0000
    290 H         161.8738  189.1212  162.8216 H        21        0    0.0000
    291 H         162.8593  188.2603  164.0047 H        21        0    0.0000
    292 H         161.6124  190.6820  164.4942 H        21        0    0.0000
    293 H         161.9752  189.5302  165.7785 H        21        0    0.0000
    294 H         159.8212  188.9639  166.1130 H        21        0    0.0000
    295 H         158.0872  190.4953  164.6589 H        21        0    0.0000
    296 H         159.5635  191.4115  164.3775 H        21        0    0.0000
    297 H         158.6656  187.7497  164.4069 H        21        0    0.0000
    298 H         159.2004  188.8531  163.1347 H        21        0    0.0000
    299 H         160.7324  187.0731  162.8202 H        21        0    0.0000
    300 H         160.8945  186.8543  165.8838 H        21        0    0.0000
    301 H         162.1228  186.1828  164.8212 H        21        0    0.0000
    302 C         162.3264  182.3002  163.8517 C.3      22        0    0.0000
    303 C         162.2903  183.7404  164.3607 C.3      22        0    0.0000
    304 C         160.9468  183.9171  165.0892 C.3      22        0    0.0000
    305 C         160.2096  185.1900  164.6526 C.3      22        0    0.0000
    306 C         160.1752  182.6187  164.8071 C.3      22        0    0.0000
    307 C         161.2578  181.5441  164.6454 C.3      22        0    0.0000
    308 C         161.8121  181.0021  165.9756 C.3      22        0    0.0000
    309 H         162.0582  182.2932  162.7874 H        22        0    0.0000
    310 H         163.3243  181.8586  163.9363 H        22        0    0.0000
    311 H         162.4205  184.4425  163.5299 H        22        0    0.0000
    312 H         163.1146  183.9151  165.0621 H        22        0    0.0000
    313 H         161.1531  183.9749  166.1673 H        22        0    0.0000
    314 H         159.2598  185.2840  165.1918 H        22        0    0.0000
    315 H         159.9625  185.1176  163.5866 H        22        0    0.0000
    316 H         159.4560  182.3884  165.5991 H        22        0    0.0000
    317 H         159.6131  182.7061  163.8681 H        22        0    0.0000
    318 H         160.8746  180.7083  164.0462 H        22        0    0.0000
    319 H         161.0220  180.9143  166.7290 H        22        0    0.0000
    320 H         162.5483  181.7103  166.3750 H        22        0    0.0000
    321 C         161.7017  177.2664  168.5437 C.3      23        0    0.0000
    322 C         161.5656  178.6938  168.0079 C.3      23        0    0.0000
    323 C         162.8135  178.9617  167.1475 C.3      23        0    0.0000
    324 C         162.5155  179.6268  165.7980 C.3      23        0    0.0000
    325 C         163.4698  177.5866  166.9879 C.3      23        0    0.0000
    326 C         163.1576  176.8557  168.2982 C.3      23        0    0.0000
    327 C         164.1042  177.2687  169.4412 C.3      23        0    0.0000
    328 H         161.3928  177.1932  169.5909 H        23        0    0.0000
    329 H         161.0399  176.6079  167.9665 H        23        0    0.0000
    330 H         160.6309  178.7955  167.4454 H        23        0    0.0000
    331 H         161.5244  179.4101  168.8367 H        23        0    0.0000
    332 H         163.4979  179.6019  167.7224 H        23        0    0.0000
    333 H         163.4552  179.7841  165.2553 H        23        0    0.0000
    334 H         161.8956  178.9706  165.1763 H        23        0    0.0000
    335 H         164.5438  177.6653  166.7904 H        23        0    0.0000
    336 H         163.0174  177.0424  166.1488 H        23        0    0.0000
    337 H         163.2267  175.7719  168.1404 H        23        0    0.0000
    338 H         163.5644  177.3537  170.3908 H        23        0    0.0000
    339 H         164.5262  178.2574  169.2250 H        23        0    0.0000
    340 C         164.8685  172.9231  171.3683 C.3      24        0    0.0000
    341 C         164.9301  174.4435  171.4138 C.3      24        0    0.0000
    342 C         164.8480  174.8333  169.9343 C.3      24        0    0.0000
    343 C         165.2822  176.2652  169.6066 C.3      24        0    0.0000
    344 C         165.6020  173.7212  169.1793 C.3      24        0    0.0000
    345 C         165.7930  172.5787  170.1960 C.3      24        0    0.0000
    346 C         165.6415  171.1620  169.6335 C.3      24        0    0.0000
    347 H         165.2077  172.4720  172.3059 H        24        0    0.0000
    348 H         163.8372  172.5998  171.1887 H        24        0    0.0000
    349 H         164.1076  174.8687  171.9973 H        24        0    0.0000
    350 H         165.8727  174.7621  171.8723 H        24        0    0.0000
    351 H         163.7903  174.7528  169.6415 H        24        0    0.0000
    352 H         165.9456  176.6287  170.4003 H        24        0    0.0000
    353 H         165.8714  176.2584  168.6820 H        24        0    0.0000
    354 H         166.5792  174.0467  168.8066 H        24        0    0.0000
    355 H         165.0222  173.4171  168.3011 H        24        0    0.0000
    356 H         166.8250  172.6577  170.5698 H        24        0    0.0000
    357 H         165.8916  170.4371  170.4172 H        24        0    0.0000
    358 H         164.5909  170.9914  169.3701 H        24        0    0.0000
    359 C         166.8114  167.2142  167.5019 C.3      25        0    0.0000
    360 C         165.9900  168.4491  167.8396 C.3      25        0    0.0000
    361 C         167.0443  169.4323  168.3523 C.3      25        0    0.0000
    362 C         166.5246  170.8718  168.3829 C.3      25        0    0.0000
    363 C         168.2457  169.2012  167.4174 C.3      25        0    0.0000
    364 C         168.0612  167.7894  166.8237 C.3      25        0    0.0000
    365 C         169.3029  166.8898  166.8672 C.3      25        0    0.0000
    366 H         166.2677  166.5293  166.8438 H        25        0    0.0000
    367 H         167.0533  166.6725  168.4228 H        25        0    0.0000
    368 H         165.4948  168.8335  166.9395 H        25        0    0.0000
    369 H         165.2218  168.2377  168.5896 H        25        0    0.0000
    370 H         167.3358  169.1261  169.3675 H        25        0    0.0000
    371 H         167.3636  171.5773  168.3615 H        25        0    0.0000
    372 H         165.9308  171.0618  167.4809 H        25        0    0.0000
    373 H         168.2591  169.9330  166.6002 H        25        0    0.0000
    374 H         169.1880  169.3181  167.9629 H        25        0    0.0000
    375 H         167.8153  167.9262  165.7601 H        25        0    0.0000
    376 H         170.0644  167.2973  166.1917 H        25        0    0.0000
    377 H         169.0378  165.8987  166.4801 H        25        0    0.0000
    378 C         169.8238  163.0221  168.5650 C.3      26        0    0.0000
    379 C         169.1664  164.2740  167.9789 C.3      26        0    0.0000
    380 C         169.4600  165.4247  168.9581 C.3      26        0    0.0000
    381 C         169.9249  166.7211  168.2832 C.3      26        0    0.0000
    382 C         170.5132  164.8541  169.9133 C.3      26        0    0.0000
    383 C         170.1721  163.3638  170.0178 C.3      26        0    0.0000
    384 C         169.0145  163.0934  170.9976 C.3      26        0    0.0000
    385 H         169.1855  162.1396  168.4597 H        26        0    0.0000
    386 H         170.7494  162.8174  168.0119 H        26        0    0.0000
    387 H         169.5528  164.4635  166.9713 H        26        0    0.0000
    388 H         168.0835  164.1295  167.8886 H        26        0    0.0000
    389 H         168.5475  165.6261  169.5372 H        26        0    0.0000
    390 H         169.6265  167.5782  168.8987 H        26        0    0.0000
    391 H         171.0185  166.7456  168.2134 H        26        0    0.0000
    392 H         170.5047  165.3614  170.8835 H        26        0    0.0000
    393 H         171.5182  164.9703  169.4873 H        26        0    0.0000
    394 H         171.0602  162.8047  170.3386 H        26        0    0.0000
    395 H         168.0486  163.0994  170.4804 H        26        0    0.0000
    396 H         168.9789  163.8920  171.7481 H        26        0    0.0000
    397 C         169.1918  161.7378  171.7411 C.3      27        0    0.0000
    398 C         168.4924  160.5547  171.0566 C.3      27        0    0.0000
    399 H         170.2689  161.5285  171.7658 H        27        0    0.0000
    400 H         168.8691  161.8432  172.7835 H        27        0    0.0000
    401 H         167.4688  160.4272  171.4283 H        27        0    0.0000
    402 H         168.4114  160.7804  169.9856 H        27        0    0.0000
    403 C         168.5522  156.4889  168.6277 C.3      28        0    0.0000
    404 C         168.7659  157.9583  168.9572 C.3      28        0    0.0000
    405 C         168.5891  158.0137  170.4799 C.3      28        0    0.0000
    406 C         169.2706  159.1987  171.1759 C.3      28        0    0.0000
    407 C         168.9956  156.6188  170.9980 C.3      28        0    0.0000
    408 C         169.3069  155.7729  169.7498 C.3      28        0    0.0000
    409 C         168.9122  154.2981  169.8611 C.3      28        0    0.0000
    410 H         167.4829  156.2459  168.6520 H        28        0    0.0000
    411 H         168.9400  156.2304  167.6376 H        28        0    0.0000
    412 H         169.7720  158.2605  168.6468 H        28        0    0.0000
    413 H         168.0483  158.6018  168.4386 H        28        0    0.0000
    414 H         167.5113  158.1187  170.6744 H        28        0    0.0000
    415 H         169.3999  158.9607  172.2384 H        28        0    0.0000
    416 H         170.2762  159.3291  170.7587 H        28        0    0.0000
    417 H         168.1606  156.1926  171.5680 H        28        0    0.0000
    418 H         169.8583  156.6455  171.6719 H        28        0    0.0000
    419 H         170.3843  155.8494  169.5434 H        28        0    0.0000
    420 H         168.3618  153.9852  168.9659 H        28        0    0.0000
    421 H         169.8186  153.6827  169.9041 H        28        0    0.0000
    422 C         165.6638  151.0504  171.2666 C.3      29        0    0.0000
    423 C         166.0596  152.4037  170.6926 C.3      29        0    0.0000
    424 C         167.4989  152.5774  171.1885 C.3      29        0    0.0000
    425 C         168.0498  154.0051  171.1209 C.3      29        0    0.0000
    426 C         167.5306  151.9183  172.5813 C.3      29        0    0.0000
    427 C         166.2255  151.1059  172.6911 C.3      29        0    0.0000
    428 C         166.3463  149.7552  173.4032 C.3      29        0    0.0000
    429 H         164.5793  150.9039  171.2575 H        29        0    0.0000
    430 H         166.1203  150.2496  170.6745 H        29        0    0.0000
    431 H         165.9964  152.4188  169.6002 H        29        0    0.0000
    432 H         165.3927  153.1805  171.0828 H        29        0    0.0000
    433 H         168.1377  151.9648  170.5345 H        29        0    0.0000
    434 H         167.2132  154.7133  171.1476 H        29        0    0.0000
    435 H         168.6548  154.1985  172.0146 H        29        0    0.0000
    436 H         167.5771  152.6481  173.3967 H        29        0    0.0000
    437 H         168.4279  151.2967  172.6718 H        29        0    0.0000
    438 H         165.5255  151.7115  173.2865 H        29        0    0.0000
    439 H         166.7593  149.9149  174.4062 H        29        0    0.0000
    440 H         165.3445  149.3307  173.5390 H        29        0    0.0000
    441 C         166.6842  145.4809  174.5209 C.3      30        0    0.0000
    442 C         166.2434  146.8744  174.0995 C.3      30        0    0.0000
    443 C         167.5194  147.4715  173.5025 C.3      30        0    0.0000
    444 C         167.2337  148.7146  172.6563 C.3      30        0    0.0000
    445 C         168.1465  146.2967  172.7297 C.3      30        0    0.0000
    446 C         167.5594  145.0127  173.3514 C.3      30        0    0.0000
    447 C         168.5808  143.9207  173.6936 C.3      30        0    0.0000
    448 H         165.8313  144.8150  174.6855 H        30        0    0.0000
    449 H         167.2465  145.5429  175.4589 H        30        0    0.0000
    450 H         165.4473  146.8097  173.3479 H        30        0    0.0000
    451 H         165.8694  147.4590  174.9455 H        30        0    0.0000
    452 H         168.1944  147.7377  174.3289 H        30        0    0.0000
    453 H         168.1740  149.1916  172.3554 H        30        0    0.0000
    454 H         166.7235  148.4151  171.7331 H        30        0    0.0000
    455 H         167.8785  146.3330  171.6664 H        30        0    0.0000
    456 H         169.2395  146.3387  172.7826 H        30        0    0.0000
    457 H         166.8843  144.5799  172.5982 H        30        0    0.0000
    458 H         169.5917  144.3093  173.5224 H        30        0    0.0000
    459 H         168.4468  143.0793  173.0033 H        30        0    0.0000
    460 C         171.7117  141.6600  176.1370 C.3      31        0    0.0000
    461 C         170.9577  142.6078  175.2169 C.3      31        0    0.0000
    462 C         169.4852  142.2710  175.4840 C.3      31        0    0.0000
    463 C         168.4872  143.3877  175.1522 C.3      31        0    0.0000
    464 C         169.4337  141.7464  176.9337 C.3      31        0    0.0000
    465 C         170.8915  141.7105  177.4277 C.3      31        0    0.0000
    466 C         171.2208  140.5473  178.3666 C.3      31        0    0.0000
    467 H         171.7221  140.6481  175.7139 H        31        0    0.0000
    468 H         172.7475  141.9772  176.2922 H        31        0    0.0000
    469 H         171.1991  143.6432  175.4805 H        31        0    0.0000
    470 H         171.2273  142.4584  174.1667 H        31        0    0.0000
    471 H         169.2270  141.4219  174.8338 H        31        0    0.0000
    472 H         167.4695  143.0183  175.3261 H        31        0    0.0000
    473 H         168.6408  144.2231  175.8456 H        31        0    0.0000
    474 H         168.9896  140.7432  176.9345 H        31        0    0.0000
    475 H         168.8173  142.3663  177.5932 H        31        0    0.0000
    476 H         171.1055  142.6627  177.9346 H        31        0    0.0000
    477 H         172.0744  140.8060  179.0043 H        31        0    0.0000
    478 H         170.3705  140.3701  179.0358 H        31        0    0.0000
    479 C         171.5347  139.2322  177.5995 C.3      32        0    0.0000
    480 C         172.0543  138.0973  178.4936 C.3      32        0    0.0000
    481 H         170.5943  138.9008  177.1408 H        32        0    0.0000
    482 H         172.2283  139.4410  176.7766 H        32        0    0.0000
    483 H         172.8909  138.4325  179.1179 H        32        0    0.0000
    484 H         171.2477  137.8075  179.1792 H        32        0    0.0000
    485 C         175.3018  135.0532  179.2457 C.3      33        0    0.0000
    486 C         174.2663  136.1659  179.4012 C.3      33        0    0.0000
    487 C         173.0119  135.7110  178.6352 C.3      33        0    0.0000
    488 C         172.4665  136.8047  177.7075 C.3      33        0    0.0000
    489 C         173.4423  134.4289  177.9061 C.3      33        0    0.0000
    490 C         174.5249  133.8115  178.8004 C.3      33        0    0.0000
    491 C         173.9753  133.0211  180.0020 C.3      33        0    0.0000
    492 H         176.0117  135.3368  178.4582 H        33        0    0.0000
    493 H         175.8803  134.8984  180.1619 H        33        0    0.0000
    494 H         174.6688  137.1163  179.0341 H        33        0    0.0000
    495 H         174.0191  136.3083  180.4598 H        33        0    0.0000
    496 H         172.2410  135.4517  179.3746 H        33        0    0.0000
    497 H         171.6077  136.4288  177.1393 H        33        0    0.0000
    498 H         173.2366  137.0755  176.9751 H        33        0    0.0000
    499 H         172.5983  133.7560  177.7263 H        33        0    0.0000
    500 H         173.8804  134.6747  176.9299 H        33        0    0.0000
    501 H         175.1789  133.1595  178.2074 H        33        0    0.0000
    502 H         172.9580  132.6633  179.8104 H        33        0    0.0000
    503 H         173.9150  133.6846  180.8733 H        33        0    0.0000
    504 C         175.8432  130.1023  177.1548 C.3      34        0    0.0000
    505 C         175.4707  131.3441  177.9502 C.3      34        0    0.0000
    506 C         174.9527  130.7644  179.2680 C.3      34        0    0.0000
    507 C         174.8870  131.8184  180.3761 C.3      34        0    0.0000
    508 C         175.9076  129.5903  179.5518 C.3      34        0    0.0000
    509 C         176.5264  129.2032  178.1929 C.3      34        0    0.0000
    510 C         176.5169  127.7039  177.8686 C.3      34        0    0.0000
    511 H         176.5075  130.3377  176.3173 H        34        0    0.0000
    512 H         174.9365  129.6447  176.7446 H        34        0    0.0000
    513 H         176.3564  131.9699  178.1141 H        34        0    0.0000
    514 H         174.7149  131.9473  177.4380 H        34        0    0.0000
    515 H         173.9475  130.3542  179.0922 H        34        0    0.0000
    516 H         174.5247  131.3664  181.3070 H        34        0    0.0000
    517 H         175.8972  132.1926  180.5804 H        34        0    0.0000
    518 H         176.7104  129.8887  180.2375 H        34        0    0.0000
    519 H         175.3723  128.7639  180.0312 H        34        0    0.0000
    520 H         177.5838  129.5045  178.2326 H        34        0    0.0000
    521 H         176.7471  127.5659  176.8055 H        34        0    0.0000
    522 H         175.5043  127.3128  178.0240 H        34        0    0.0000
    523 C         177.6361  128.0008  182.3054 C.3      35        0    0.0000
    524 C         176.9603  127.9783  180.9319 C.3      35        0    0.0000
    525 C         178.0575  127.6297  179.9176 C.3      35        0    0.0000
    526 C         177.5125  126.8576  178.7129 C.3      35        0    0.0000
    527 C         179.0791  126.8594  180.7608 C.3      35        0    0.0000
    528 C         179.1136  127.6649  182.0638 C.3      35        0    0.0000
    529 C         179.7455  126.9320  183.2505 C.3      35        0    0.0000
    530 H         177.5294  128.9782  182.7880 H        35        0    0.0000
    531 H         177.1584  127.2616  182.9595 H        35        0    0.0000
    532 H         176.5001  128.9440  180.6964 H        35        0    0.0000
    533 H         176.1601  127.2284  180.9311 H        35        0    0.0000
    534 H         178.5197  128.5677  179.5771 H        35        0    0.0000
    535 H         176.9941  125.9574  179.0643 H        35        0    0.0000
    536 H         178.3364  126.5187  178.0741 H        35        0    0.0000
    537 H         180.0609  126.8198  180.2783 H        35        0    0.0000
    538 H         178.7425  125.8312  180.9433 H        35        0    0.0000
    539 H         179.6533  128.6055  181.8804 H        35        0    0.0000
    540 H         179.0722  126.9574  184.1153 H        35        0    0.0000
    541 H         180.6638  127.4516  183.5495 H        35        0    0.0000
    542 C         178.3728  124.4804  179.6722 C.3      36        0    0.0000
    543 C         178.4342  125.3296  180.9341 C.3      36        0    0.0000
    544 C         179.8520  125.0685  181.4531 C.3      36        0    0.0000
    545 C         180.0995  125.4575  182.9138 C.3      36        0    0.0000
    546 C         180.1500  123.5988  181.0972 C.3      36        0    0.0000
    547 C         179.0491  123.1755  180.1052 C.3      36        0    0.0000
    548 C         179.5045  122.2608  178.9641 C.3      36        0    0.0000
    549 H         177.3433  124.3188  179.3379 H        36        0    0.0000
    550 H         178.9187  124.9790  178.8638 H        36        0    0.0000
    551 H         178.2625  126.3895  180.7224 H        36        0    0.0000
    552 H         177.6680  124.9957  181.6425 H        36        0    0.0000
    553 H         180.5323  125.6847  180.8461 H        36        0    0.0000
    554 H         179.5137  124.7973  183.5643 H        36        0    0.0000
    555 H         181.1545  125.2842  183.1570 H        36        0    0.0000
    556 H         180.1306  122.9371  181.9699 H        36        0    0.0000
    557 H         181.1572  123.5217  180.6737 H        36        0    0.0000
    558 H         178.3047  122.6070  180.6831 H        36        0    0.0000
    559 H         178.6354  121.7219  178.5686 H        36        0    0.0000
    560 H         179.8929  122.8768  178.1443 H        36        0    0.0000
    561 C         179.2468  119.8124  182.5273 C.3      37        0    0.0000
    562 C         179.2565  121.0032  181.5656 C.3      37        0    0.0000
    563 C         180.6389  121.0110  180.8888 C.3      37        0    0.0000
    564 C         180.5942  121.2238  179.3706 C.3      37        0    0.0000
    565 C         181.2590  119.6632  181.2710 C.3      37        0    0.0000
    566 C         180.7064  119.3670  182.6693 C.3      37        0    0.0000
    567 C         181.4660  120.1255  183.7741 C.3      37        0    0.0000
    568 H         178.7664  120.0608  183.4784 H        37        0    0.0000
    569 H         178.6648  118.9986  182.0759 H        37        0    0.0000
    570 H         178.4324  120.9132  180.8493 H        37        0    0.0000
    571 H         179.1065  121.9393  182.1161 H        37        0    0.0000
    572 H         181.2430  121.8069  181.3474 H        37        0    0.0000
    573 H         181.5688  121.5900  179.0263 H        37        0    0.0000
    574 H         180.4121  120.2733  178.8559 H        37        0    0.0000
    575 H         182.3531  119.6926  181.2436 H        37        0    0.0000
    576 H         180.9309  118.8806  180.5746 H        37        0    0.0000
    577 H         180.7586  118.2884  182.8647 H        37        0    0.0000
    578 H         180.8883  120.1526  184.7046 H        37        0    0.0000
    579 H         181.6178  121.1659  183.4628 H        37        0    0.0000
    580 C         182.9497  116.5095  181.7224 C.3      38        0    0.0000
    581 C         182.8631  117.0724  183.1327 C.3      38        0    0.0000
    582 C         183.3435  118.5202  182.9710 C.3      38        0    0.0000
    583 C         182.8614  119.4951  184.0527 C.3      38        0    0.0000
    584 C         182.9957  118.9155  181.5211 C.3      38        0    0.0000
    585 C         182.4083  117.6536  180.8628 C.3      38        0    0.0000
    586 C         182.7602  117.4805  179.3833 C.3      38        0    0.0000
    587 H         183.9921  116.2820  181.4676 H        38        0    0.0000
    588 H         182.3617  115.5934  181.6101 H        38        0    0.0000
    589 H         181.8277  117.0176  183.4858 H        38        0    0.0000
    590 H         183.4865  116.5109  183.8357 H        38        0    0.0000
    591 H         184.4417  118.5034  183.0367 H        38        0    0.0000
    592 H         182.8230  118.9691  185.0141 H        38        0    0.0000
    593 H         183.5980  120.2995  184.1640 H        38        0    0.0000
    594 H         183.9109  119.2400  181.0104 H        38        0    0.0000
    595 H         182.2872  119.7483  181.4610 H        38        0    0.0000
    596 H         181.3150  117.6836  180.9786 H        38        0    0.0000
    597 H         182.4232  118.3521  178.8098 H        38        0    0.0000
    598 H         183.8502  117.4338  179.2732 H        38        0    0.0000
    599 C         182.6744  113.4742  181.3708 C.3      39        0    0.0000
    600 C         182.9915  114.8571  180.8190 C.3      39        0    0.0000
    601 C         181.8837  115.0739  179.7829 C.3      39        0    0.0000
    602 C         182.1411  116.1933  178.7697 C.3      39        0    0.0000
    603 C         181.6137  113.6813  179.1802 C.3      39        0    0.0000
    604 C         182.3203  112.6767  180.1113 C.3      39        0    0.0000
    605 C         181.5721  111.3623  180.3541 C.3      39        0    0.0000
    606 H         183.5261  113.0421  181.9052 H        39        0    0.0000
    607 H         181.8320  113.5383  182.0684 H        39        0    0.0000
    608 H         182.9783  115.6223  181.6014 H        39        0    0.0000
    609 H         183.9875  114.8540  180.3629 H        39        0    0.0000
    610 H         180.9778  115.3583  180.3394 H        39        0    0.0000
    611 H         182.8104  115.8197  177.9857 H        39        0    0.0000
    612 H         181.1967  116.4564  178.2786 H        39        0    0.0000
    613 H         182.0047  113.5747  178.1626 H        39        0    0.0000
    614 H         180.5332  113.5139  179.1149 H        39        0    0.0000
    615 H         183.2708  112.4099  179.6251 H        39        0    0.0000
    616 H         180.8824  111.4933  181.1963 H        39        0    0.0000
    617 H         180.9570  111.1326  179.4760 H        39        0    0.0000
    618 C         183.4636  110.1225  184.2327 C.3      40        0    0.0000
    619 C         182.8067  110.9074  183.0946 C.3      40        0    0.0000
    620 C         183.4782  110.4381  181.7915 C.3      40        0    0.0000
    621 C         182.4975  110.1439  180.6497 C.3      40        0    0.0000
    622 C         184.2845  109.2015  182.2012 C.3      40        0    0.0000
    623 C         184.7268  109.4886  183.6400 C.3      40        0    0.0000
    624 C         185.9558  110.4152  183.7030 C.3      40        0    0.0000
    625 H         183.6543  110.7538  185.1058 H        40        0    0.0000
    626 H         182.7790  109.3272  184.5543 H        40        0    0.0000
    627 H         181.7240  110.7398  183.0998 H        40        0    0.0000
    628 H         182.9686  111.9832  183.2300 H        40        0    0.0000
    629 H         184.1857  111.2152  181.4688 H        40        0    0.0000
    630 H         183.0607  109.9058  179.7395 H        40        0    0.0000
    631 H         181.8881  109.2639  180.8855 H        40        0    0.0000
    632 H         185.1267  109.0188  181.5259 H        40        0    0.0000
    633 H         183.6474  108.3077  182.1858 H        40        0    0.0000
    634 H         184.9549  108.5442  184.1503 H        40        0    0.0000
    635 H         186.0967  110.8177  184.7122 H        40        0    0.0000
    636 H         185.8000  111.2722  183.0371 H        40        0    0.0000
    637 C         188.2914  106.5127  181.6294 C.3      41        0    0.0000
    638 C         187.9341  107.9880  181.4330 C.3      41        0    0.0000
    639 C         186.9456  108.3545  182.5544 C.3      41        0    0.0000
    640 C         187.2542  109.6836  183.2548 C.3      41        0    0.0000
    641 C         186.9990  107.1625  183.5154 C.3      41        0    0.0000
    642 C         187.2592  105.9513  182.6134 C.3      41        0    0.0000
    643 C         185.9777  105.4462  181.9238 C.3      41        0    0.0000
    644 H         188.3335  105.9736  180.6782 H        41        0    0.0000
    645 H         189.2901  106.4482  182.0800 H        41        0    0.0000
    646 H         188.8431  108.5994  181.4502 H        41        0    0.0000
    647 H         187.4607  108.1391  180.4557 H        41        0    0.0000
    648 H         185.9355  108.3999  182.1227 H        41        0    0.0000
    649 H         187.8697  109.4922  184.1419 H        41        0    0.0000
    650 H         187.8395  110.3362  182.5968 H        41        0    0.0000
    651 H         186.0791  107.0665  184.1013 H        41        0    0.0000
    652 H         187.8314  107.2782  184.2216 H        41        0    0.0000
    653 H         187.6995  105.1392  183.2058 H        41        0    0.0000
    654 H         185.5835  106.1927  181.2254 H        41        0    0.0000
    655 H         185.2013  105.2751  182.6790 H        41        0    0.0000
    656 C         189.2859  103.9915  179.1529 C.3      42        0    0.0000
    657 C         188.4573  104.7983  180.1514 C.3      42        0    0.0000
    658 C         187.7111  103.7795  181.0302 C.3      42        0    0.0000
    659 C         186.2186  104.1086  181.1656 C.3      42        0    0.0000
    660 C         187.9953  102.4179  180.3776 C.3      42        0    0.0000
    661 C         189.3744  102.5741  179.7244 C.3      42        0    0.0000
    662 C         190.5553  102.4254  180.7010 C.3      42        0    0.0000
    663 H         188.7544  103.9614  178.1932 H        42        0    0.0000
    664 H         190.2637  104.4467  178.9668 H        42        0    0.0000
    665 H         187.7826  105.4815  179.6239 H        42        0    0.0000
    666 H         189.1132  105.4138  180.7783 H        42        0    0.0000
    667 H         188.1725  103.7931  182.0278 H        42        0    0.0000
    668 H         185.6939  103.2941  181.6783 H        42        0    0.0000
    669 H         185.7742  104.1919  180.1664 H        42        0    0.0000
    670 H         187.9532  101.5988  181.1021 H        42        0    0.0000
    671 H         187.2511  102.2061  179.5987 H        42        0    0.0000
    672 H         189.4891  101.8521  178.9059 H        42        0    0.0000
    673 H         190.7449  103.3595  181.2406 H        42        0    0.0000
    674 H         191.4667  102.2009  180.1337 H        42        0    0.0000
    675 C         190.3283  101.2736  181.7207 C.3      43        0    0.0000
    676 C         191.2138  100.0428  181.4791 C.3      43        0    0.0000
    677 H         190.5689  101.6768  182.7128 H        43        0    0.0000
    678 H         189.2661  101.0029  181.7418 H        43        0    0.0000
    679 H         191.9303  100.2199  180.6684 H        43        0    0.0000
    680 H         191.8047   99.8651  182.3868 H        43        0    0.0000
    681 C         189.7667   97.4869  184.7312 C.3      44        0    0.0000
    682 C         190.3389   98.5267  183.7779 C.3      44        0    0.0000
    683 C         189.7285   98.1276  182.4304 C.3      44        0    0.0000
    684 C         190.4110   98.7259  181.1965 C.3      44        0    0.0000
    685 C         189.6445   96.5890  182.4628 C.3      44        0    0.0000
    686 C         189.8875   96.1861  183.9305 C.3      44        0    0.0000
    687 C         189.0405   95.0174  184.4432 C.3      44        0    0.0000
    688 H         190.3242   97.4439  185.6719 H        44        0    0.0000
    689 H         188.7246   97.7322  184.9641 H        44        0    0.0000
    690 H         190.0622   99.5447  184.0694 H        44        0    0.0000
    691 H         191.4324   98.4602  183.7709 H        44        0    0.0000
    692 H         188.6932   98.5005  182.4264 H        44        0    0.0000
    693 H         191.0938   97.9820  180.7691 H        44        0    0.0000
    694 H         189.6524   98.9330  180.4324 H        44        0    0.0000
    695 H         190.3921   96.1083  181.8227 H        44        0    0.0000
    696 H         188.6661   96.2680  182.0895 H        44        0    0.0000
    697 H         190.9378   95.8651  184.0002 H        44        0    0.0000
    698 H         188.0991   95.4078  184.8476 H        44        0    0.0000
    699 H         188.7761   94.3691  183.5994 H        44        0    0.0000
    700 C         191.1964   95.5181  188.7380 C.3      45        0    0.0000
    701 C         190.0637   95.4424  187.7109 C.3      45        0    0.0000
    702 C         190.7037   94.9733  186.3977 C.3      45        0    0.0000
    703 C         189.7362   94.1546  185.5385 C.3      45        0    0.0000
    704 C         191.9441   94.2070  186.8691 C.3      45        0    0.0000
    705 C         192.4737   95.0917  188.0026 C.3      45        0    0.0000
    706 C         193.4785   94.4048  188.9317 C.3      45        0    0.0000
    707 H         191.2981   96.5287  189.1479 H        45        0    0.0000
    708 H         190.9738   94.8480  189.5770 H        45        0    0.0000
    709 H         189.5731   96.4134  187.5838 H        45        0    0.0000
    710 H         189.3008   94.7363  188.0602 H        45        0    0.0000
    711 H         191.0318   95.8624  185.8397 H        45        0    0.0000
    712 H         188.9628   93.7171  186.1812 H        45        0    0.0000
    713 H         190.2631   93.3183  185.0643 H        45        0    0.0000
    714 H         192.6793   94.0859  186.0672 H        45        0    0.0000
    715 H         191.6727   93.2113  187.2418 H        45        0    0.0000
    716 H         192.9315   95.9895  187.5622 H        45        0    0.0000
    717 H         193.2841   94.6829  189.9742 H        45        0    0.0000
    718 H         194.4898   94.7560  188.6942 H        45        0    0.0000
    719 C         193.5058   91.1600  192.1812 C.3      46        0    0.0000
    720 C         193.2277   92.3929  191.3348 C.3      46        0    0.0000
    721 C         193.9697   92.1027  190.0240 C.3      46        0    0.0000
    722 C         193.4480   92.8578  188.7949 C.3      46        0    0.0000
    723 C         194.0000   90.5660  189.8932 C.3      46        0    0.0000
    724 C         193.3550   90.0146  191.1780 C.3      46        0    0.0000
    725 C         193.9692   88.7109  191.6940 C.3      46        0    0.0000
    726 H         194.5241   91.1996  192.5867 H        46        0    0.0000
    727 H         192.8066   91.0716  193.0183 H        46        0    0.0000
    728 H         192.1478   92.4973  191.1839 H        46        0    0.0000
    729 H         193.5885   93.3079  191.8150 H        46        0    0.0000
    730 H         195.0117   92.4259  190.1665 H        46        0    0.0000
    731 H         194.0454   92.5710  187.9212 H        46        0    0.0000
    732 H         192.4189   92.5402  188.5896 H        46        0    0.0000
    733 H         195.0422   90.2363  189.7994 H        46        0    0.0000
    734 H         193.4709   90.1998  189.0072 H        46        0    0.0000
    735 H         192.2827   89.8639  190.9861 H        46        0    0.0000
    736 H         194.1439   88.7768  192.7744 H        46        0    0.0000
    737 H         193.2590   87.8899  191.5396 H        46        0    0.0000
    738 C         197.7247   86.4907  193.2388 C.3      47        0    0.0000
    739 C         196.6742   87.5732  193.0337 C.3      47        0    0.0000
    740 C         196.1000   87.2351  191.6539 C.3      47        0    0.0000
    741 C         195.3040   88.3570  190.9802 C.3      47        0    0.0000
    742 C         197.2897   86.6850  190.8430 C.3      47        0    0.0000
    743 C         198.4070   86.4128  191.8691 C.3      47        0    0.0000
    744 C         199.2392   85.1511  191.6200 C.3      47        0    0.0000
    745 H         198.4292   86.7503  194.0350 H        47        0    0.0000
    746 H         197.2366   85.5482  193.5103 H        47        0    0.0000
    747 H         195.9077   87.5522  193.8145 H        47        0    0.0000
    748 H         197.1510   88.5595  193.0513 H        47        0    0.0000
    749 H         195.4004   86.3977  191.7962 H        47        0    0.0000
    750 H         195.9268   89.2581  190.9310 H        47        0    0.0000
    751 H         195.0844   88.0690  189.9453 H        47        0    0.0000
    752 H         197.6513   87.3897  190.0864 H        47        0    0.0000
    753 H         196.9791   85.7843  190.3027 H        47        0    0.0000
    754 H         199.1034   87.2629  191.8109 H        47        0    0.0000
    755 H         199.8443   85.2939  190.7169 H        47        0    0.0000
    756 H         199.9412   85.0149  192.4512 H        47        0    0.0000
    757 C         198.1747   80.7493  193.6229 C.3      48        0    0.0000
    758 C         197.5755   81.6503  192.5539 C.3      48        0    0.0000
    759 C         198.3621   82.9584  192.7055 C.3      48        0    0.0000
    760 C         198.3970   83.8502  191.4578 C.3      48        0    0.0000
    761 C         199.7400   82.5538  193.2686 C.3      48        0    0.0000
    762 C         199.6738   81.0347  193.5107 C.3      48        0    0.0000
    763 C         200.4474   80.5478  194.7385 C.3      48        0    0.0000
    764 H         197.7917   81.0274  194.6123 H        48        0    0.0000
    765 H         197.9400   79.6948  193.4485 H        48        0    0.0000
    766 H         197.7184   81.1940  191.5684 H        48        0    0.0000
    767 H         196.5012   81.7998  192.7009 H        48        0    0.0000
    768 H         197.8621   83.5446  193.4909 H        48        0    0.0000
    769 H         198.8024   83.2722  190.6187 H        48        0    0.0000
    770 H         197.3711   84.1237  191.1842 H        48        0    0.0000
    771 H         199.9164   83.0975  194.2050 H        48        0    0.0000
    772 H         200.5684   82.8024  192.5970 H        48        0    0.0000
    773 H         200.0546   80.5272  192.6125 H        48        0    0.0000
    774 H         200.2054   79.4988  194.9466 H        48        0    0.0000
    775 H         201.5228   80.5867  194.5280 H        48        0    0.0000
    776 C         201.8571   82.7548  198.4646 C.3      49        0    0.0000
    777 C         200.8990   83.3614  197.4358 C.3      49        0    0.0000
    778 C         201.1212   82.5954  196.1271 C.3      49        0    0.0000
    779 C         200.1556   81.4015  196.0044 C.3      49        0    0.0000
    780 C         202.6016   82.2070  196.2295 C.3      49        0    0.0000
    781 C         202.7881   81.8037  197.6944 C.3      49        0    0.0000
    782 C         204.2561   81.8596  198.1322 C.3      49        0    0.0000
    783 H         202.4053   83.5542  198.9759 H        49        0    0.0000
    784 H         201.3008   82.2019  199.2302 H        49        0    0.0000
    785 H         201.1619   84.4163  197.2870 H        49        0    0.0000
    786 H         199.8601   83.3360  197.7800 H        49        0    0.0000
    787 H         200.9674   83.2668  195.2725 H        49        0    0.0000
    788 H         199.1268   81.7756  195.9372 H        49        0    0.0000
    789 H         200.1982   80.7631  196.8933 H        49        0    0.0000
    790 H         203.2235   83.0805  195.9934 H        49        0    0.0000
    791 H         202.8920   81.4040  195.5456 H        49        0    0.0000
    792 H         202.4163   80.7773  197.8214 H        49        0    0.0000
    793 H         204.7041   80.8599  198.0925 H        49        0    0.0000
    794 H         204.3125   82.1921  199.1754 H        49        0    0.0000
    795 C         205.0859   82.8369  197.2509 C.3      50        0    0.0000
    796 C         206.5905   82.5318  197.2280 C.3      50        0    0.0000
    797 H         204.7036   82.7420  196.2265 H        50        0    0.0000
    798 H         204.8931   83.8700  197.5629 H        50        0    0.0000
    799 H         207.0875   82.9080  198.1299 H        50        0    0.0000
    800 H         206.7169   81.4416  197.2317 H        50        0    0.0000
    801 C         206.9249   81.5741  192.4967 C.3      51        0    0.0000
    802 C         206.3079   82.2097  193.7331 C.3      51        0    0.0000
    803 C         207.4052   82.0667  194.7953 C.3      51        0    0.0000
    804 C         207.3301   83.0690  195.9540 C.3      51        0    0.0000
    805 C         208.7380   82.0514  194.0187 C.3      51        0    0.0000
    806 C         208.3636   82.0940  192.5258 C.3      51        0    0.0000
    807 C         209.2877   81.2866  191.6108 C.3      51        0    0.0000
    808 H         206.8974   80.4806  192.5779 H        51        0    0.0000
    809 H         206.3989   81.8631  191.5816 H        51        0    0.0000
    810 H         206.0684   83.2582  193.5250 H        51        0    0.0000
    811 H         205.3820   81.7079  194.0316 H        51        0    0.0000
    812 H         207.2913   81.0678  195.2423 H        51        0    0.0000
    813 H         208.3481   83.3625  196.2370 H        51        0    0.0000
    814 H         206.8256   83.9790  195.6084 H        51        0    0.0000
    815 H         209.2839   81.1321  194.2648 H        51        0    0.0000
    816 H         209.3950   82.8887  194.2765 H        51        0    0.0000
    817 H         208.3563   83.1455  192.2038 H        51        0    0.0000
    818 H         208.7026   80.7802  190.8340 H        51        0    0.0000
    819 H         209.9724   81.9694  191.0938 H        51        0    0.0000
    820 C         211.9514   80.4186  195.1113 C.3      52        0    0.0000
    821 C         210.8497   79.4426  194.6893 C.3      52        0    0.0000
    822 C         209.8219   80.2593  193.8985 C.3      52        0    0.0000
    823 C         210.1259   80.2336  192.3887 C.3      52        0    0.0000
    824 C         209.9436   81.6438  194.5476 C.3      52        0    0.0000
    825 C         211.4472   81.8298  194.7666 C.3      52        0    0.0000
    826 C         211.7548   82.8911  195.8290 C.3      52        0    0.0000
    827 H         212.1623   80.2989  196.1800 H        52        0    0.0000
    828 H         212.8814   80.2068  194.5714 H        52        0    0.0000
    829 H         210.3734   79.0362  195.5906 H        52        0    0.0000
    830 H         211.2500   78.5923  194.1278 H        52        0    0.0000
    831 H         208.8159   79.8533  194.0660 H        52        0    0.0000
    832 H         209.8862   79.2405  191.9897 H        52        0    0.0000
    833 H         211.1911   80.3992  192.1950 H        52        0    0.0000
    834 H         209.4165   81.6412  195.5106 H        52        0    0.0000
    835 H         209.5170   82.4499  193.9431 H        52        0    0.0000
    836 H         211.9010   82.1363  193.8137 H        52        0    0.0000
    837 H         211.3785   82.5712  196.8077 H        52        0    0.0000
    838 H         211.2326   83.8214  195.5761 H        52        0    0.0000
    839 H         212.8229   83.0971  195.8988 H        52        0    0.0000
    840 H         119.5621  243.3463  168.6374 H         0        0    0.0000
@<TRIPOS>BOND
     1     1     2      1
     2     1     6      1
     3     1     8      1
     4     1     9      1
     5     2     3      1
     6     2    10      1
     7     2    11      1
     8     3     4      1
     9     3     5      1
    10     3    12      1
    11     4    13      1
    12     4    14      1
    13     4   840      H
    14     5     6      1
    15     5    15      1
    16     5    16      1
    17     6     7      1
    18     6    17      1
    19     7    18      1
    20     7    19      1
    21     7    23      1
    22    20    21      1
    23    20    25      1
    24    20    27      1
    25    20    28      1
    26    21    22      1
    27    21    29      1
    28    21    30      1
    29    22    23      1
    30    22    24      1
    31    22    31      1
    32    23    32      1
    33    23    33      1
    34    24    25      1
    35    24    34      1
    36    24    35      1
    37    25    26      1
    38    25    36      1
    39    26    37      1
    40    26    38      1
    41    26    39      1
    42    39    40      1
    43    39    41      1
    44    39    42      1
    45    40    43      1
    46    40    44      1
    47    40    48      1
    48    45    46      1
    49    45    50      1
    50    45    52      1
    51    45    53      1
    52    46    47      1
    53    46    54      1
    54    46    55      1
    55    47    48      1
    56    47    49      1
    57    47    56      1
    58    48    57      1
    59    48    58      1
    60    49    50      1
    61    49    59      1
    62    49    60      1
    63    50    51      1
    64    50    61      1
    65    51    62      1
    66    51    63      1
    67    51    64      1
    68    64    65      1
    69    64    66      1
    70    64    67      1
    71    65    68      1
    72    65    69      1
    73    65    73      1
    74    70    71      1
    75    70    75      1
    76    70    77      1
    77    70    78      1
    78    71    72      1
    79    71    79      1
    80    71    80      1
    81    72    73      1
    82    72    74      1
    83    72    81      1
    84    73    82      1
    85    73    83      1
    86    74    75      1
    87    74    84      1
    88    74    85      1
    89    75    76      1
    90    75    86      1
    91    76    87      1
    92    76    88      1
    93    76    92      1
    94    89    90      1
    95    89    94      1
    96    89    96      1
    97    89    97      1
    98    90    91      1
    99    90    98      1
   100    90    99      1
   101    91    92      1
   102    91    93      1
   103    91   100      1
   104    92   101      1
   105    92   102      1
   106    93    94      1
   107    93   103      1
   108    93   104      1
   109    94    95      1
   110    94   105      1
   111    95   106      1
   112    95   107      1
   113    95   108      1
   114   108   109      1
   115   108   110      1
   116   108   111      1
   117   109   112      1
   118   109   113      1
   119   109   114      1
   120   114   115      1
   121   114   116      1
   122   114   117      1
   123   115   118      1
   124   115   119      1
   125   115   120      1
   126   120   121      1
   127   120   122      1
   128   120   123      1
   129   121   124      1
   130   121   125      1
   131   121   126      1
   132   126   127      1
   133   126   128      1
   134   126   129      1
   135   127   130      1
   136   127   131      1
   137   127   135      1
   138   132   133      1
   139   132   137      1
   140   132   139      1
   141   132   140      1
   142   133   134      1
   143   133   141      1
   144   133   142      1
   145   134   135      1
   146   134   136      1
   147   134   143      1
   148   135   144      1
   149   135   145      1
   150   136   137      1
   151   136   146      1
   152   136   147      1
   153   137   138      1
   154   137   148      1
   155   138   149      1
   156   138   150      1
   157   138   154      1
   158   151   152      1
   159   151   156      1
   160   151   158      1
   161   151   159      1
   162   152   153      1
   163   152   160      1
   164   152   161      1
   165   153   154      1
   166   153   155      1
   167   153   162      1
   168   154   163      1
   169   154   164      1
   170   155   156      1
   171   155   165      1
   172   155   166      1
   173   156   157      1
   174   156   167      1
   175   157   168      1
   176   157   169      1
   177   157   170      1
   178   170   171      1
   179   170   172      1
   180   170   173      1
   181   171   174      1
   182   171   175      1
   183   171   179      1
   184   176   177      1
   185   176   181      1
   186   176   183      1
   187   176   184      1
   188   177   178      1
   189   177   185      1
   190   177   186      1
   191   178   179      1
   192   178   180      1
   193   178   187      1
   194   179   188      1
   195   179   189      1
   196   180   181      1
   197   180   190      1
   198   180   191      1
   199   181   182      1
   200   181   192      1
   201   182   193      1
   202   182   194      1
   203   182   195      1
   204   195   196      1
   205   195   197      1
   206   195   198      1
   207   196   199      1
   208   196   200      1
   209   196   204      1
   210   201   202      1
   211   201   206      1
   212   201   208      1
   213   201   209      1
   214   202   203      1
   215   202   210      1
   216   202   211      1
   217   203   204      1
   218   203   205      1
   219   203   212      1
   220   204   213      1
   221   204   214      1
   222   205   206      1
   223   205   215      1
   224   205   216      1
   225   206   207      1
   226   206   217      1
   227   207   218      1
   228   207   219      1
   229   207   223      1
   230   220   221      1
   231   220   225      1
   232   220   227      1
   233   220   228      1
   234   221   222      1
   235   221   229      1
   236   221   230      1
   237   222   223      1
   238   222   224      1
   239   222   231      1
   240   223   232      1
   241   223   233      1
   242   224   225      1
   243   224   234      1
   244   224   235      1
   245   225   226      1
   246   225   236      1
   247   226   237      1
   248   226   238      1
   249   226   242      1
   250   239   240      1
   251   239   244      1
   252   239   246      1
   253   239   247      1
   254   240   241      1
   255   240   248      1
   256   240   249      1
   257   241   242      1
   258   241   243      1
   259   241   250      1
   260   242   251      1
   261   242   252      1
   262   243   244      1
   263   243   253      1
   264   243   254      1
   265   244   245      1
   266   244   255      1
   267   245   256      1
   268   245   257      1
   269   245   261      1
   270   258   259      1
   271   258   263      1
   272   258   265      1
   273   258   266      1
   274   259   260      1
   275   259   267      1
   276   259   268      1
   277   260   261      1
   278   260   262      1
   279   260   269      1
   280   261   270      1
   281   261   271      1
   282   262   263      1
   283   262   272      1
   284   262   273      1
   285   263   264      1
   286   263   274      1
   287   264   275      1
   288   264   276      1
   289   264   277      1
   290   277   278      1
   291   277   279      1
   292   277   280      1
   293   278   281      1
   294   278   282      1
   295   278   286      1
   296   283   284      1
   297   283   288      1
   298   283   290      1
   299   283   291      1
   300   284   285      1
   301   284   292      1
   302   284   293      1
   303   285   286      1
   304   285   287      1
   305   285   294      1
   306   286   295      1
   307   286   296      1
   308   287   288      1
   309   287   297      1
   310   287   298      1
   311   288   289      1
   312   288   299      1
   313   289   300      1
   314   289   301      1
   315   289   305      1
   316   302   303      1
   317   302   307      1
   318   302   309      1
   319   302   310      1
   320   303   304      1
   321   303   311      1
   322   303   312      1
   323   304   305      1
   324   304   306      1
   325   304   313      1
   326   305   314      1
   327   305   315      1
   328   306   307      1
   329   306   316      1
   330   306   317      1
   331   307   308      1
   332   307   318      1
   333   308   319      1
   334   308   320      1
   335   308   324      1
   336   321   322      1
   337   321   326      1
   338   321   328      1
   339   321   329      1
   340   322   323      1
   341   322   330      1
   342   322   331      1
   343   323   324      1
   344   323   325      1
   345   323   332      1
   346   324   333      1
   347   324   334      1
   348   325   326      1
   349   325   335      1
   350   325   336      1
   351   326   327      1
   352   326   337      1
   353   327   338      1
   354   327   339      1
   355   327   343      1
   356   340   341      1
   357   340   345      1
   358   340   347      1
   359   340   348      1
   360   341   342      1
   361   341   349      1
   362   341   350      1
   363   342   343      1
   364   342   344      1
   365   342   351      1
   366   343   352      1
   367   343   353      1
   368   344   345      1
   369   344   354      1
   370   344   355      1
   371   345   346      1
   372   345   356      1
   373   346   357      1
   374   346   358      1
   375   346   362      1
   376   359   360      1
   377   359   364      1
   378   359   366      1
   379   359   367      1
   380   360   361      1
   381   360   368      1
   382   360   369      1
   383   361   362      1
   384   361   363      1
   385   361   370      1
   386   362   371      1
   387   362   372      1
   388   363   364      1
   389   363   373      1
   390   363   374      1
   391   364   365      1
   392   364   375      1
   393   365   376      1
   394   365   377      1
   395   365   381      1
   396   378   379      1
   397   378   383      1
   398   378   385      1
   399   378   386      1
   400   379   380      1
   401   379   387      1
   402   379   388      1
   403   380   381      1
   404   380   382      1
   405   380   389      1
   406   381   390      1
   407   381   391      1
   408   382   383      1
   409   382   392      1
   410   382   393      1
   411   383   384      1
   412   383   394      1
   413   384   395      1
   414   384   396      1
   415   384   397      1
   416   397   398      1
   417   397   399      1
   418   397   400      1
   419   398   401      1
   420   398   402      1
   421   398   406      1
   422   403   404      1
   423   403   408      1
   424   403   410      1
   425   403   411      1
   426   404   405      1
   427   404   412      1
   428   404   413      1
   429   405   406      1
   430   405   407      1
   431   405   414      1
   432   406   415      1
   433   406   416      1
   434   407   408      1
   435   407   417      1
   436   407   418      1
   437   408   409      1
   438   408   419      1
   439   409   420      1
   440   409   421      1
   441   409   425      1
   442   422   423      1
   443   422   427      1
   444   422   429      1
   445   422   430      1
   446   423   424      1
   447   423   431      1
   448   423   432      1
   449   424   425      1
   450   424   426      1
   451   424   433      1
   452   425   434      1
   453   425   435      1
   454   426   427      1
   455   426   436      1
   456   426   437      1
   457   427   428      1
   458   427   438      1
   459   428   439      1
   460   428   440      1
   461   428   444      1
   462   441   442      1
   463   441   446      1
   464   441   448      1
   465   441   449      1
   466   442   443      1
   467   442   450      1
   468   442   451      1
   469   443   444      1
   470   443   445      1
   471   443   452      1
   472   444   453      1
   473   444   454      1
   474   445   446      1
   475   445   455      1
   476   445   456      1
   477   446   447      1
   478   446   457      1
   479   447   458      1
   480   447   459      1
   481   447   463      1
   482   460   461      1
   483   460   465      1
   484   460   467      1
   485   460   468      1
   486   461   462      1
   487   461   469      1
   488   461   470      1
   489   462   463      1
   490   462   464      1
   491   462   471      1
   492   463   472      1
   493   463   473      1
   494   464   465      1
   495   464   474      1
   496   464   475      1
   497   465   466      1
   498   465   476      1
   499   466   477      1
   500   466   478      1
   501   466   479      1
   502   479   480      1
   503   479   481      1
   504   479   482      1
   505   480   483      1
   506   480   484      1
   507   480   488      1
   508   485   486      1
   509   485   490      1
   510   485   492      1
   511   485   493      1
   512   486   487      1
   513   486   494      1
   514   486   495      1
   515   487   488      1
   516   487   489      1
   517   487   496      1
   518   488   497      1
   519   488   498      1
   520   489   490      1
   521   489   499      1
   522   489   500      1
   523   490   491      1
   524   490   501      1
   525   491   502      1
   526   491   503      1
   527   491   507      1
   528   504   505      1
   529   504   509      1
   530   504   511      1
   531   504   512      1
   532   505   506      1
   533   505   513      1
   534   505   514      1
   535   506   507      1
   536   506   508      1
   537   506   515      1
   538   507   516      1
   539   507   517      1
   540   508   509      1
   541   508   518      1
   542   508   519      1
   543   509   510      1
   544   509   520      1
   545   510   521      1
   546   510   522      1
   547   510   526      1
   548   523   524      1
   549   523   528      1
   550   523   530      1
   551   523   531      1
   552   524   525      1
   553   524   532      1
   554   524   533      1
   555   525   526      1
   556   525   527      1
   557   525   534      1
   558   526   535      1
   559   526   536      1
   560   527   528      1
   561   527   537      1
   562   527   538      1
   563   528   529      1
   564   528   539      1
   565   529   540      1
   566   529   541      1
   567   529   545      1
   568   542   543      1
   569   542   547      1
   570   542   549      1
   571   542   550      1
   572   543   544      1
   573   543   551      1
   574   543   552      1
   575   544   545      1
   576   544   546      1
   577   544   553      1
   578   545   554      1
   579   545   555      1
   580   546   547      1
   581   546   556      1
   582   546   557      1
   583   547   548      1
   584   547   558      1
   585   548   559      1
   586   548   560      1
   587   548   564      1
   588   561   562      1
   589   561   566      1
   590   561   568      1
   591   561   569      1
   592   562   563      1
   593   562   570      1
   594   562   571      1
   595   563   564      1
   596   563   565      1
   597   563   572      1
   598   564   573      1
   599   564   574      1
   600   565   566      1
   601   565   575      1
   602   565   576      1
   603   566   567      1
   604   566   577      1
   605   567   578      1
   606   567   579      1
   607   567   583      1
   608   580   581      1
   609   580   585      1
   610   580   587      1
   611   580   588      1
   612   581   582      1
   613   581   589      1
   614   581   590      1
   615   582   583      1
   616   582   584      1
   617   582   591      1
   618   583   592      1
   619   583   593      1
   620   584   585      1
   621   584   594      1
   622   584   595      1
   623   585   586      1
   624   585   596      1
   625   586   597      1
   626   586   598      1
   627   586   602      1
   628   599   600      1
   629   599   604      1
   630   599   606      1
   631   599   607      1
   632   600   601      1
   633   600   608      1
   634   600   609      1
   635   601   602      1
   636   601   603      1
   637   601   610      1
   638   602   611      1
   639   602   612      1
   640   603   604      1
   641   603   613      1
   642   603   614      1
   643   604   605      1
   644   604   615      1
   645   605   616      1
   646   605   617      1
   647   605   621      1
   648   618   619      1
   649   618   623      1
   650   618   625      1
   651   618   626      1
   652   619   620      1
   653   619   627      1
   654   619   628      1
   655   620   621      1
   656   620   622      1
   657   620   629      1
   658   621   630      1
   659   621   631      1
   660   622   623      1
   661   622   632      1
   662   622   633      1
   663   623   624      1
   664   623   634      1
   665   624   635      1
   666   624   636      1
   667   624   640      1
   668   637   638      1
   669   637   642      1
   670   637   644      1
   671   637   645      1
   672   638   639      1
   673   638   646      1
   674   638   647      1
   675   639   640      1
   676   639   641      1
   677   639   648      1
   678   640   649      1
   679   640   650      1
   680   641   642      1
   681   641   651      1
   682   641   652      1
   683   642   643      1
   684   642   653      1
   685   643   654      1
   686   643   655      1
   687   643   659      1
   688   656   657      1
   689   656   661      1
   690   656   663      1
   691   656   664      1
   692   657   658      1
   693   657   665      1
   694   657   666      1
   695   658   659      1
   696   658   660      1
   697   658   667      1
   698   659   668      1
   699   659   669      1
   700   660   661      1
   701   660   670      1
   702   660   671      1
   703   661   662      1
   704   661   672      1
   705   662   673      1
   706   662   674      1
   707   662   675      1
   708   675   676      1
   709   675   677      1
   710   675   678      1
   711   676   679      1
   712   676   680      1
   713   676   684      1
   714   681   682      1
   715   681   686      1
   716   681   688      1
   717   681   689      1
   718   682   683      1
   719   682   690      1
   720   682   691      1
   721   683   684      1
   722   683   685      1
   723   683   692      1
   724   684   693      1
   725   684   694      1
   726   685   686      1
   727   685   695      1
   728   685   696      1
   729   686   687      1
   730   686   697      1
   731   687   698      1
   732   687   699      1
   733   687   703      1
   734   700   701      1
   735   700   705      1
   736   700   707      1
   737   700   708      1
   738   701   702      1
   739   701   709      1
   740   701   710      1
   741   702   703      1
   742   702   704      1
   743   702   711      1
   744   703   712      1
   745   703   713      1
   746   704   705      1
   747   704   714      1
   748   704   715      1
   749   705   706      1
   750   705   716      1
   751   706   717      1
   752   706   718      1
   753   706   722      1
   754   719   720      1
   755   719   724      1
   756   719   726      1
   757   719   727      1
   758   720   721      1
   759   720   728      1
   760   720   729      1
   761   721   722      1
   762   721   723      1
   763   721   730      1
   764   722   731      1
   765   722   732      1
   766   723   724      1
   767   723   733      1
   768   723   734      1
   769   724   725      1
   770   724   735      1
   771   725   736      1
   772   725   737      1
   773   725   741      1
   774   738   739      1
   775   738   743      1
   776   738   745      1
   777   738   746      1
   778   739   740      1
   779   739   747      1
   780   739   748      1
   781   740   741      1
   782   740   742      1
   783   740   749      1
   784   741   750      1
   785   741   751      1
   786   742   743      1
   787   742   752      1
   788   742   753      1
   789   743   744      1
   790   743   754      1
   791   744   755      1
   792   744   756      1
   793   744   760      1
   794   757   758      1
   795   757   762      1
   796   757   764      1
   797   757   765      1
   798   758   759      1
   799   758   766      1
   800   758   767      1
   801   759   760      1
   802   759   761      1
   803   759   768      1
   804   760   769      1
   805   760   770      1
   806   761   762      1
   807   761   771      1
   808   761   772      1
   809   762   763      1
   810   762   773      1
   811   763   774      1
   812   763   775      1
   813   763   779      1
   814   776   777      1
   815   776   781      1
   816   776   783      1
   817   776   784      1
   818   777   778      1
   819   777   785      1
   820   777   786      1
   821   778   779      1
   822   778   780      1
   823   778   787      1
   824   779   788      1
   825   779   789      1
   826   780   781      1
   827   780   790      1
   828   780   791      1
   829   781   782      1
   830   781   792      1
   831   782   793      1
   832   782   794      1
   833   782   795      1
   834   795   796      1
   835   795   797      1
   836   795   798      1
   837   796   799      1
   838   796   800      1
   839   796   804      1
   840   801   802      1
   841   801   806      1
   842   801   808      1
   843   801   809      1
   844   802   803      1
   845   802   810      1
   846   802   811      1
   847   803   804      1
   848   803   805      1
   849   803   812      1
   850   804   813      1
   851   804   814      1
   852   805   806      1
   853   805   815      1
   854   805   816      1
   855   806   807      1
   856   806   817      1
   857   807   818      1
   858   807   819      1
   859   807   823      1
   860   820   821      1
   861   820   825      1
   862   820   827      1
   863   820   828      1
   864   821   822      1
   865   821   829      1
   866   821   830      1
   867   822   823      1
   868   822   824      1
   869   822   831      1
   870   823   832      1
   871   823   833      1
   872   824   825      1
   873   824   834      1
   874   824   835      1
   875   825   826      1
   876   825   836      1
   877   826   837      1
   878   826   838      1
   879   826   839      H
