###
### Created by PolyChef-cpp17 on Wed Feb 26 21:14:12 2025
###

@<TRIPOS>MOLECULE
NO_INFO
1525 1595 1 0 0
SMALL
USER_CHARGES


@<TRIPOS>ATOM
      1 C         185.9852  238.5516  173.3498 C.3       0        0    0.0000
      2 C         187.1931  238.0072  174.0995 C.3       0        0    0.0000
      3 C         188.3581  238.3495  173.1651 C.3       0        0    0.0000
      4 C         189.6614  237.5912  173.4342 C.3       0        0    0.0000
      5 C         187.7896  238.2086  171.7394 C.3       0        0    0.0000
      6 C         186.2594  238.1245  171.9041 C.3       0        0    0.0000
      7 C         185.4392  238.8544  170.8361 C.3       0        0    0.0000
      8 H         185.0467  238.1365  173.7302 H         0        0    0.0000
      9 H         185.9434  239.6411  173.4568 H         0        0    0.0000
     10 H         187.3060  238.4709  175.0844 H         0        0    0.0000
     11 H         187.0835  236.9266  174.2428 H         0        0    0.0000
     12 H         188.5816  239.4170  173.3119 H         0        0    0.0000
     13 H         189.4868  236.5179  173.2935 H         0        0    0.0000
     14 H         190.4095  237.8888  172.6898 H         0        0    0.0000
     15 H         188.1519  237.3131  171.2232 H         0        0    0.0000
     16 H         188.1061  239.0641  171.1329 H         0        0    0.0000
     17 H         185.9918  237.0596  171.8299 H         0        0    0.0000
     18 H         184.3968  238.5193  170.8941 H         0        0    0.0000
     19 H         185.4376  239.9283  171.0572 H         0        0    0.0000
     20 C         186.5135  235.5192  167.4582 C.3       1        0    0.0000
     21 C         185.6704  236.2275  168.5214 C.3       1        0    0.0000
     22 C         186.5900  237.2615  169.1954 C.3       1        0    0.0000
     23 C         185.9523  238.6441  169.3798 C.3       1        0    0.0000
     24 C         187.8334  237.3071  168.3014 C.3       1        0    0.0000
     25 C         187.9720  235.8800  167.7605 C.3       1        0    0.0000
     26 C         188.6331  234.9285  168.7757 C.3       1        0    0.0000
     27 H         186.3204  234.4425  167.4359 H         1        0    0.0000
     28 H         186.2422  235.9150  166.4711 H         1        0    0.0000
     29 H         184.7872  236.6812  168.0585 H         1        0    0.0000
     30 H         185.3118  235.5072  169.2661 H         1        0    0.0000
     31 H         186.8899  236.8682  170.1773 H         1        0    0.0000
     32 H         186.6952  239.4193  169.1572 H         1        0    0.0000
     33 H         185.1269  238.7825  168.6721 H         1        0    0.0000
     34 H         188.7202  237.6422  168.8490 H         1        0    0.0000
     35 H         187.6777  238.0015  167.4657 H         1        0    0.0000
     36 H         188.5613  235.8930  166.8348 H         1        0    0.0000
     37 H         187.9306  234.6440  169.5670 H         1        0    0.0000
     38 H         189.4710  235.4412  169.2628 H         1        0    0.0000
     39 C         189.1838  233.6445  168.0901 C.3       2        0    0.0000
     40 C         188.8399  232.3448  168.8317 C.3       2        0    0.0000
     41 H         188.7285  233.5979  167.0925 H         2        0    0.0000
     42 H         190.2649  233.7422  167.9369 H         2        0    0.0000
     43 H         189.4117  232.2535  169.7626 H         2        0    0.0000
     44 H         187.7808  232.3855  169.1168 H         2        0    0.0000
     45 C         191.9051  230.3800  165.7232 C.3       3        0    0.0000
     46 C         191.3743  231.1916  166.9075 C.3       3        0    0.0000
     47 C         189.8540  231.3222  166.7055 C.3       3        0    0.0000
     48 C         189.0266  231.0497  167.9677 C.3       3        0    0.0000
     49 C         189.5332  230.3400  165.5743 C.3       3        0    0.0000
     50 C         190.7798  230.3576  164.6831 C.3       3        0    0.0000
     51 C         190.8072  231.5717  163.7352 C.3       3        0    0.0000
     52 H         192.8491  230.7826  165.3439 H         3        0    0.0000
     53 H         192.1048  229.3544  166.0591 H         3        0    0.0000
     54 H         191.6377  230.6969  167.8489 H         3        0    0.0000
     55 H         191.8342  232.1865  166.9249 H         3        0    0.0000
     56 H         189.6400  232.3388  166.3457 H         3        0    0.0000
     57 H         188.0361  230.6780  167.6794 H         3        0    0.0000
     58 H         189.4967  230.2653  168.5719 H         3        0    0.0000
     59 H         188.6216  230.6183  165.0358 H         3        0    0.0000
     60 H         189.3853  229.3294  165.9764 H         3        0    0.0000
     61 H         190.8237  229.4330  164.0936 H         3        0    0.0000
     62 H         191.3497  232.4115  164.1834 H         3        0    0.0000
     63 H         189.7818  231.9151  163.5540 H         3        0    0.0000
     64 C         191.4491  231.2181  162.3623 C.3       4        0    0.0000
     65 C         192.9587  231.4889  162.2912 C.3       4        0    0.0000
     66 H         191.2880  230.1440  162.2045 H         4        0    0.0000
     67 H         190.9125  231.7368  161.5591 H         4        0    0.0000
     68 H         193.2505  231.8643  161.3033 H         4        0    0.0000
     69 H         193.1966  232.2824  163.0112 H         4        0    0.0000
     70 C         195.4508  227.4777  161.9616 C.3       5        0    0.0000
     71 C         194.8566  228.5667  161.0643 C.3       5        0    0.0000
     72 C         193.5735  229.0470  161.7514 C.3       5        0    0.0000
     73 C         193.8462  230.2530  162.6701 C.3       5        0    0.0000
     74 C         193.1090  227.7822  162.4846 C.3       5        0    0.0000
     75 C         194.3977  227.1695  163.0390 C.3       5        0    0.0000
     76 C         194.2414  225.6802  163.3665 C.3       5        0    0.0000
     77 H         195.7024  226.5979  161.3585 H         5        0    0.0000
     78 H         196.3788  227.8270  162.4287 H         5        0    0.0000
     79 H         194.6032  228.1246  160.0925 H         5        0    0.0000
     80 H         195.5715  229.3733  160.8724 H         5        0    0.0000
     81 H         192.8325  229.3360  160.9951 H         5        0    0.0000
     82 H         194.8994  230.5449  162.5783 H         5        0    0.0000
     83 H         193.6841  229.9957  163.7222 H         5        0    0.0000
     84 H         192.6406  227.0970  161.7660 H         5        0    0.0000
     85 H         192.3780  227.9776  163.2748 H         5        0    0.0000
     86 H         194.6721  227.7100  163.9558 H         5        0    0.0000
     87 H         194.2066  225.5301  164.4518 H         5        0    0.0000
     88 H         195.1167  225.1325  162.9976 H         5        0    0.0000
     89 C         192.5196  221.3306  162.7744 C.3       6        0    0.0000
     90 C         193.0581  222.6229  163.3938 C.3       6        0    0.0000
     91 C         193.1756  223.6343  162.2460 C.3       6        0    0.0000
     92 C         192.9636  225.0759  162.7166 C.3       6        0    0.0000
     93 C         192.1395  223.1342  161.2339 C.3       6        0    0.0000
     94 C         192.3341  221.6149  161.2781 C.3       6        0    0.0000
     95 C         191.1847  220.8064  160.6702 C.3       6        0    0.0000
     96 H         193.2082  220.4936  162.9328 H         6        0    0.0000
     97 H         191.5696  221.0646  163.2531 H         6        0    0.0000
     98 H         194.0283  222.4617  163.8760 H         6        0    0.0000
     99 H         192.3649  222.9731  164.1680 H         6        0    0.0000
    100 H         194.1767  223.5338  161.8020 H         6        0    0.0000
    101 H         192.1524  225.1004  163.4540 H         6        0    0.0000
    102 H         192.6474  225.7071  161.8779 H         6        0    0.0000
    103 H         192.3166  223.5402  160.2329 H         6        0    0.0000
    104 H         191.1234  223.4093  161.5432 H         6        0    0.0000
    105 H         193.2736  221.3665  160.7632 H         6        0    0.0000
    106 H         190.2690  221.4086  160.6430 H         6        0    0.0000
    107 H         190.9744  219.9399  161.3085 H         6        0    0.0000
    108 C         191.5118  220.2981  159.2393 C.3       7        0    0.0000
    109 C         190.5243  219.2488  158.7090 C.3       7        0    0.0000
    110 H         191.4698  221.1712  158.5755 H         7        0    0.0000
    111 H         192.5433  219.9282  159.2054 H         7        0    0.0000
    112 H         190.6809  218.2754  159.1887 H         7        0    0.0000
    113 H         189.5096  219.5706  158.9762 H         7        0    0.0000
    114 C         190.5500  219.0800  157.1503 C.3       8        0    0.0000
    115 C         189.2555  218.4982  156.5645 C.3       8        0    0.0000
    116 H         191.3694  218.3871  156.9201 H         8        0    0.0000
    117 H         190.8065  220.0362  156.6794 H         8        0    0.0000
    118 H         189.2738  217.4107  156.7116 H         8        0    0.0000
    119 H         188.3732  218.8717  157.0974 H         8        0    0.0000
    120 C         189.0861  218.7439  155.0251 C.3       9        0    0.0000
    121 C         187.8477  218.0691  154.4182 C.3       9        0    0.0000
    122 H         188.9855  219.8279  154.8864 H         9        0    0.0000
    123 H         190.0010  218.4444  154.5003 H         9        0    0.0000
    124 H         187.6135  217.1293  154.9318 H         9        0    0.0000
    125 H         186.9879  218.7336  154.5724 H         9        0    0.0000
    126 C         187.9525  217.8156  152.8743 C.3      10        0    0.0000
    127 C         187.4980  216.4149  152.4398 C.3      10        0    0.0000
    128 H         189.0106  217.9288  152.6058 H        10        0    0.0000
    129 H         187.4066  218.5977  152.3337 H        10        0    0.0000
    130 H         187.6679  215.7267  153.2777 H        10        0    0.0000
    131 H         186.4224  216.3922  152.2288 H        10        0    0.0000
    132 C         188.8289  217.8403  148.0280 C.3      11        0    0.0000
    133 C         187.9071  217.0851  148.9754 C.3      11        0    0.0000
    134 C         188.7757  216.9029  150.2244 C.3      11        0    0.0000
    135 C         188.2892  215.8400  151.2142 C.3      11        0    0.0000
    136 C         190.2109  216.7115  149.6962 C.3      11        0    0.0000
    137 C         190.1699  217.1220  148.2112 C.3      11        0    0.0000
    138 C         191.3980  217.8827  147.7021 C.3      11        0    0.0000
    139 H         188.4765  217.7958  146.9928 H        11        0    0.0000
    140 H         188.8817  218.8936  148.3246 H        11        0    0.0000
    141 H         186.9920  217.6461  149.1891 H        11        0    0.0000
    142 H         187.6219  216.1264  148.5283 H        11        0    0.0000
    143 H         188.7630  217.8617  150.7643 H        11        0    0.0000
    144 H         187.6481  215.1248  150.6852 H        11        0    0.0000
    145 H         189.1520  215.2746  151.5858 H        11        0    0.0000
    146 H         190.5612  215.6772  149.7805 H        11        0    0.0000
    147 H         190.9028  217.3210  150.2873 H        11        0    0.0000
    148 H         190.1151  216.1907  147.6274 H        11        0    0.0000
    149 H         191.2464  218.9565  147.8636 H        11        0    0.0000
    150 H         192.2712  217.5944  148.2993 H        11        0    0.0000
    151 C         195.1528  216.1350  145.7828 C.3      12        0    0.0000
    152 C         193.9603  216.5243  146.6603 C.3      12        0    0.0000
    153 C         193.2257  217.6467  145.9154 C.3      12        0    0.0000
    154 C         191.7205  217.6437  146.1964 C.3      12        0    0.0000
    155 C         193.6024  217.3975  144.4512 C.3      12        0    0.0000
    156 C         195.0891  217.0383  144.5442 C.3      12        0    0.0000
    157 C         195.6603  216.3575  143.2973 C.3      12        0    0.0000
    158 H         196.1010  216.2650  146.3154 H        12        0    0.0000
    159 H         195.0755  215.0754  145.5110 H        12        0    0.0000
    160 H         194.2850  216.8579  147.6518 H        12        0    0.0000
    161 H         193.3143  215.6504  146.8071 H        12        0    0.0000
    162 H         193.6586  218.6074  146.2304 H        12        0    0.0000
    163 H         191.2986  216.6763  145.8987 H        12        0    0.0000
    164 H         191.2190  218.4071  145.5901 H        12        0    0.0000
    165 H         193.4336  218.2823  143.8292 H        12        0    0.0000
    166 H         193.0227  216.5654  144.0324 H        12        0    0.0000
    167 H         195.6585  217.9545  144.7587 H        12        0    0.0000
    168 H         196.0149  215.3497  143.5430 H        12        0    0.0000
    169 H         196.5316  216.9218  142.9438 H        12        0    0.0000
    170 C         194.6244  216.2739  142.1428 C.3      13        0    0.0000
    171 C         194.9615  217.1621  140.9366 C.3      13        0    0.0000
    172 H         194.6113  215.2301  141.8038 H        13        0    0.0000
    173 H         193.6217  216.4903  142.5297 H        13        0    0.0000
    174 H         195.1239  218.2028  141.2406 H        13        0    0.0000
    175 H         195.9082  216.8091  140.5079 H        13        0    0.0000
    176 C         193.5520  219.7247  137.2372 C.3      14        0    0.0000
    177 C         194.2138  219.3190  138.5533 C.3      14        0    0.0000
    178 C         194.3898  217.7914  138.5059 C.3      14        0    0.0000
    179 C         193.8960  217.1074  139.7875 C.3      14        0    0.0000
    180 C         193.6465  217.3513  137.2352 C.3      14        0    0.0000
    181 C         193.7559  218.5471  136.2806 C.3      14        0    0.0000
    182 C         195.1018  218.6409  135.5389 C.3      14        0    0.0000
    183 H         192.4776  219.8681  137.4097 H        14        0    0.0000
    184 H         193.9466  220.6704  136.8525 H        14        0    0.0000
    185 H         193.6089  219.6525  139.4037 H        14        0    0.0000
    186 H         195.1948  219.7994  138.6479 H        14        0    0.0000
    187 H         195.4605  217.5793  138.3767 H        14        0    0.0000
    188 H         193.6268  216.0646  139.5833 H        14        0    0.0000
    189 H         192.9843  217.6071  140.1364 H        14        0    0.0000
    190 H         194.0597  216.4284  136.8169 H        14        0    0.0000
    191 H         192.5877  217.1658  137.4582 H        14        0    0.0000
    192 H         192.9400  218.5213  135.5471 H        14        0    0.0000
    193 H         195.9446  218.5203  136.2280 H        14        0    0.0000
    194 H         195.2005  219.6391  135.0952 H        14        0    0.0000
    195 C         195.2124  217.5936  134.3950 C.3      15        0    0.0000
    196 C         196.3221  217.8956  133.3777 C.3      15        0    0.0000
    197 H         195.4380  216.6296  134.8688 H        15        0    0.0000
    198 H         194.2396  217.4805  133.9023 H        15        0    0.0000
    199 H         196.3006  218.9458  133.0640 H        15        0    0.0000
    200 H         197.2892  217.7354  133.8713 H        15        0    0.0000
    201 C         197.3764  218.6982  129.0633 C.3      16        0    0.0000
    202 C         197.2579  218.7705  130.5849 C.3      16        0    0.0000
    203 C         197.3972  217.3301  131.1071 C.3      16        0    0.0000
    204 C         196.2990  216.9663  132.1150 C.3      16        0    0.0000
    205 C         197.4028  216.4550  129.8442 C.3      16        0    0.0000
    206 C         198.0154  217.3421  128.7529 C.3      16        0    0.0000
    207 C         199.5529  217.4144  128.7881 C.3      16        0    0.0000
    208 H         196.3699  218.7316  128.6270 H        16        0    0.0000
    209 H         197.9347  219.5456  128.6532 H        16        0    0.0000
    210 H         196.3099  219.2385  130.8723 H        16        0    0.0000
    211 H         198.0617  219.3909  130.9986 H        16        0    0.0000
    212 H         198.3768  217.2430  131.5981 H        16        0    0.0000
    213 H         196.3983  215.9196  132.4252 H        16        0    0.0000
    214 H         195.3188  217.0617  131.6326 H        16        0    0.0000
    215 H         197.9504  215.5198  129.9953 H        16        0    0.0000
    216 H         196.3759  216.1921  129.5585 H        16        0    0.0000
    217 H         197.6922  216.9996  127.7615 H        16        0    0.0000
    218 H         199.9398  217.1655  129.7821 H        16        0    0.0000
    219 H         199.8707  218.4426  128.5768 H        16        0    0.0000
    220 C         200.5456  218.1467  124.3607 C.3      17        0    0.0000
    221 C         200.3200  218.2227  125.8730 C.3      17        0    0.0000
    222 C         199.7932  216.8461  126.2995 C.3      17        0    0.0000
    223 C         200.2057  216.4823  127.7285 C.3      17        0    0.0000
    224 C         200.3453  215.9116  125.2179 C.3      17        0    0.0000
    225 C         200.1457  216.7275  123.9364 C.3      17        0    0.0000
    226 C         200.9509  216.2314  122.7322 C.3      17        0    0.0000
    227 H         199.9513  218.8977  123.8292 H        17        0    0.0000
    228 H         201.6000  218.3499  124.1383 H        17        0    0.0000
    229 H         199.6077  219.0133  126.1321 H        17        0    0.0000
    230 H         201.2668  218.4621  126.3717 H        17        0    0.0000
    231 H         198.6961  216.8607  126.2238 H        17        0    0.0000
    232 H         201.2956  216.5586  127.8211 H        17        0    0.0000
    233 H         199.9421  215.4408  127.9468 H        17        0    0.0000
    234 H         199.8053  214.9600  125.1852 H        17        0    0.0000
    235 H         201.4084  215.6996  125.3871 H        17        0    0.0000
    236 H         199.0744  216.7334  123.6876 H        17        0    0.0000
    237 H         201.5325  217.0535  122.2988 H        17        0    0.0000
    238 H         200.2611  215.8868  121.9525 H        17        0    0.0000
    239 C         202.3718  213.0342  120.0273 C.3      18        0    0.0000
    240 C         202.5577  213.1098  121.5447 C.3      18        0    0.0000
    241 C         202.7299  214.5991  121.8934 C.3      18        0    0.0000
    242 C         201.9043  215.0615  123.1003 C.3      18        0    0.0000
    243 C         202.3482  215.3391  120.6073 C.3      18        0    0.0000
    244 C         202.7898  214.4024  119.4777 C.3      18        0    0.0000
    245 C         204.2995  214.5028  119.1877 C.3      18        0    0.0000
    246 H         202.9228  212.1958  119.5906 H        18        0    0.0000
    247 H         201.3088  212.8686  119.8095 H        18        0    0.0000
    248 H         201.7013  212.6505  122.0506 H        18        0    0.0000
    249 H         203.4508  212.5510  121.8479 H        18        0    0.0000
    250 H         203.7950  214.7861  122.0913 H        18        0    0.0000
    251 H         201.3008  214.2239  123.4699 H        18        0    0.0000
    252 H         202.5637  215.3647  123.9217 H        18        0    0.0000
    253 H         202.8165  216.3269  120.5482 H        18        0    0.0000
    254 H         201.2612  215.4840  120.5583 H        18        0    0.0000
    255 H         202.2264  214.6352  118.5652 H        18        0    0.0000
    256 H         204.8634  213.7613  119.7644 H        18        0    0.0000
    257 H         204.6642  215.4901  119.4952 H        18        0    0.0000
    258 C         206.0500  217.3851  116.1516 C.3      19        0    0.0000
    259 C         205.4263  216.7539  117.3989 C.3      19        0    0.0000
    260 C         204.4824  215.6430  116.9048 C.3      19        0    0.0000
    261 C         204.6099  214.3220  117.6735 C.3      19        0    0.0000
    262 C         204.8199  215.4880  115.4185 C.3      19        0    0.0000
    263 C         205.2140  216.8973  114.9634 C.3      19        0    0.0000
    264 C         203.9889  217.7870  114.6793 C.3      19        0    0.0000
    265 H         206.1088  218.4746  116.2325 H        19        0    0.0000
    266 H         207.0776  217.0146  116.0446 H        19        0    0.0000
    267 H         206.2132  216.3797  118.0630 H        19        0    0.0000
    268 H         204.8569  217.5030  117.9614 H        19        0    0.0000
    269 H         203.4485  216.0084  116.9837 H        19        0    0.0000
    270 H         203.9056  213.5910  117.2588 H        19        0    0.0000
    271 H         205.6144  213.9016  117.5484 H        19        0    0.0000
    272 H         203.9810  215.0761  114.8483 H        19        0    0.0000
    273 H         205.6734  214.8099  115.2892 H        19        0    0.0000
    274 H         205.8352  216.8323  114.0611 H        19        0    0.0000
    275 H         204.2735  218.8428  114.6126 H        19        0    0.0000
    276 H         203.2764  217.7008  115.5084 H        19        0    0.0000
    277 C         203.2608  217.3663  113.3697 C.3      20        0    0.0000
    278 C         202.7957  218.5484  112.5073 C.3      20        0    0.0000
    279 H         203.9785  216.7786  112.7831 H        20        0    0.0000
    280 H         202.4277  216.6952  113.6093 H        20        0    0.0000
    281 H         201.8076  218.9059  112.8201 H        20        0    0.0000
    282 H         203.4944  219.3801  112.6643 H        20        0    0.0000
    283 C         202.7260  214.7377  112.0347 C.3      21        0    0.0000
    284 C         201.9207  216.0266  111.8765 C.3      21        0    0.0000
    285 C         202.5119  216.7702  110.6664 C.3      21        0    0.0000
    286 C         202.7865  218.2494  110.9681 C.3      21        0    0.0000
    287 C         203.7645  215.9657  110.2868 C.3      21        0    0.0000
    288 C         203.4473  214.5233  110.7016 C.3      21        0    0.0000
    289 C         202.5703  213.7561  109.6953 C.3      21        0    0.0000
    290 H         203.4698  214.8794  112.8292 H        21        0    0.0000
    291 H         202.0960  213.8923  112.3288 H        21        0    0.0000
    292 H         201.9581  216.6159  112.7993 H        21        0    0.0000
    293 H         200.8664  215.7936  111.6858 H        21        0    0.0000
    294 H         201.7880  216.7015  109.8421 H        21        0    0.0000
    295 H         202.0418  218.8837  110.4734 H        21        0    0.0000
    296 H         203.7636  218.5277  110.5553 H        21        0    0.0000
    297 H         204.0087  216.0634  109.2245 H        21        0    0.0000
    298 H         204.6326  216.3205  110.8575 H        21        0    0.0000
    299 H         204.3770  213.9650  110.8700 H        21        0    0.0000
    300 H         201.6122  214.2625  109.5361 H        21        0    0.0000
    301 H         202.3366  212.7649  110.1026 H        21        0    0.0000
    302 C         205.8483  215.7389  106.8628 C.3      22        0    0.0000
    303 C         204.7483  215.6087  107.9151 C.3      22        0    0.0000
    304 C         204.7104  214.1284  108.3327 C.3      22        0    0.0000
    305 C         203.2861  213.5577  108.3293 C.3      22        0    0.0000
    306 C         205.6697  213.4234  107.3615 C.3      22        0    0.0000
    307 C         206.7162  214.4854  107.0009 C.3      22        0    0.0000
    308 C         207.8192  214.6688  108.0592 C.3      22        0    0.0000
    309 H         205.3871  215.7509  105.8670 H        22        0    0.0000
    310 H         206.4116  216.6712  106.9694 H        22        0    0.0000
    311 H         203.7924  215.9633  107.5143 H        22        0    0.0000
    312 H         204.9824  216.2308  108.7870 H        22        0    0.0000
    313 H         205.1232  214.0542  109.3487 H        22        0    0.0000
    314 H         203.3034  212.4920  108.0730 H        22        0    0.0000
    315 H         202.6965  214.0603  107.5531 H        22        0    0.0000
    316 H         206.1068  212.5206  107.7992 H        22        0    0.0000
    317 H         205.1360  213.1217  106.4508 H        22        0    0.0000
    318 H         207.1786  214.2478  106.0343 H        22        0    0.0000
    319 H         207.4854  214.3262  109.0446 H        22        0    0.0000
    320 H         208.0485  215.7366  108.1601 H        22        0    0.0000
    321 C         211.9582  215.0229  105.5283 C.3      23        0    0.0000
    322 C         210.8714  215.4478  106.5188 C.3      23        0    0.0000
    323 C         209.7081  214.4543  106.3488 C.3      23        0    0.0000
    324 C         209.1310  213.9303  107.6697 C.3      23        0    0.0000
    325 C         210.2871  213.3333  105.4798 C.3      23        0    0.0000
    326 C         211.2925  214.0370  104.5620 C.3      23        0    0.0000
    327 C         210.6119  214.7283  103.3653 C.3      23        0    0.0000
    328 H         212.4177  215.8839  105.0337 H        23        0    0.0000
    329 H         212.7545  214.5052  106.0783 H        23        0    0.0000
    330 H         211.2759  215.4594  107.5369 H        23        0    0.0000
    331 H         210.5279  216.4646  106.2953 H        23        0    0.0000
    332 H         208.9106  214.9513  105.7781 H        23        0    0.0000
    333 H         208.9119  212.8604  107.5712 H        23        0    0.0000
    334 H         209.8668  214.0310  108.4758 H        23        0    0.0000
    335 H         209.5078  212.7992  104.9265 H        23        0    0.0000
    336 H         210.8130  212.5991  106.1037 H        23        0    0.0000
    337 H         212.0268  213.3092  104.1940 H        23        0    0.0000
    338 H         211.3216  214.8923  102.5469 H        23        0    0.0000
    339 H         210.2481  215.7155  103.6741 H        23        0    0.0000
    340 C         206.6949  216.2283  101.5149 C.3      24        0    0.0000
    341 C         207.8322  215.9406  102.4851 C.3      24        0    0.0000
    342 C         208.4782  214.6844  101.8914 C.3      24        0    0.0000
    343 C         209.3987  213.9084  102.8382 C.3      24        0    0.0000
    344 C         207.3134  213.8763  101.2866 C.3      24        0    0.0000
    345 C         206.1087  214.8371  101.2532 C.3      24        0    0.0000
    346 C         205.2083  214.7246  100.0192 C.3      24        0    0.0000
    347 H         205.9555  216.9122  101.9431 H        24        0    0.0000
    348 H         207.0935  216.6859  100.6028 H        24        0    0.0000
    349 H         208.5373  216.7752  102.5476 H        24        0    0.0000
    350 H         207.4274  215.7614  103.4872 H        24        0    0.0000
    351 H         209.1040  215.0154  101.0488 H        24        0    0.0000
    352 H         208.8140  213.5539  103.6954 H        24        0    0.0000
    353 H         209.7739  213.0165  102.3223 H        24        0    0.0000
    354 H         207.0583  212.9899  101.8773 H        24        0    0.0000
    355 H         207.5966  213.5139  100.2925 H        24        0    0.0000
    356 H         205.4810  214.5870  102.1219 H        24        0    0.0000
    357 H         204.3007  215.3177  100.1830 H        24        0    0.0000
    358 H         205.7230  215.1675   99.1584 H        24        0    0.0000
    359 C         202.4871  211.8691   97.0212 C.3      25        0    0.0000
    360 C         203.7394  211.7914   97.8809 C.3      25        0    0.0000
    361 C         203.8460  213.2038   98.4596 C.3      25        0    0.0000
    362 C         204.7948  213.2660   99.6591 C.3      25        0    0.0000
    363 C         202.3867  213.5822   98.7726 C.3      25        0    0.0000
    364 C         201.5092  212.6764   97.8843 C.3      25        0    0.0000
    365 C         200.3928  213.3926   97.1139 C.3      25        0    0.0000
    366 H         202.0952  210.8761   96.7795 H        25        0    0.0000
    367 H         202.7210  212.3754   96.0785 H        25        0    0.0000
    368 H         203.6088  211.0468   98.6757 H        25        0    0.0000
    369 H         204.6219  211.5164   97.2953 H        25        0    0.0000
    370 H         204.2117  213.8736   97.6677 H        25        0    0.0000
    371 H         204.3300  212.7959  100.5338 H        25        0    0.0000
    372 H         205.6998  212.6887   99.4354 H        25        0    0.0000
    373 H         202.1446  213.3918   99.8256 H        25        0    0.0000
    374 H         202.2179  214.6497   98.5967 H        25        0    0.0000
    375 H         201.0117  211.9632   98.5584 H        25        0    0.0000
    376 H         200.1859  212.8421   96.1885 H        25        0    0.0000
    377 H         200.7475  214.3864   96.8154 H        25        0    0.0000
    378 C         196.4491  211.6297   96.1164 C.3      26        0    0.0000
    379 C         197.8479  212.2474   96.0491 C.3      26        0    0.0000
    380 C         197.8386  213.4622   96.9942 C.3      26        0    0.0000
    381 C         199.0658  213.5560   97.9094 C.3      26        0    0.0000
    382 C         196.5323  213.3228   97.7825 C.3      26        0    0.0000
    383 C         195.5552  212.6715   96.7978 C.3      26        0    0.0000
    384 C         194.9502  213.6883   95.8113 C.3      26        0    0.0000
    385 H         196.0926  211.3199   95.1294 H        26        0    0.0000
    386 H         196.4908  210.7280   96.7408 H        26        0    0.0000
    387 H         198.6011  211.5005   96.3233 H        26        0    0.0000
    388 H         198.0722  212.5732   95.0266 H        26        0    0.0000
    389 H         197.7730  214.3740   96.3835 H        26        0    0.0000
    390 H         199.0753  214.5340   98.4050 H        26        0    0.0000
    391 H         199.0120  212.7994   98.7007 H        26        0    0.0000
    392 H         196.1762  214.2869   98.1600 H        26        0    0.0000
    393 H         196.6762  212.6612   98.6465 H        26        0    0.0000
    394 H         194.7482  212.1768   97.3532 H        26        0    0.0000
    395 H         195.5408  213.7457   94.8903 H        26        0    0.0000
    396 H         194.9663  214.6874   96.2629 H        26        0    0.0000
    397 C         193.4753  213.3412   95.4563 C.3      27        0    0.0000
    398 C         192.6519  214.5419   94.9684 C.3      27        0    0.0000
    399 H         193.5101  212.6008   94.6469 H        27        0    0.0000
    400 H         192.9956  212.8493   96.3106 H        27        0    0.0000
    401 H         192.6959  215.3724   95.6827 H        27        0    0.0000
    402 H         193.1010  214.9062   94.0356 H        27        0    0.0000
    403 C         190.7783  211.3763   92.1497 C.3      28        0    0.0000
    404 C         191.5948  212.0797   93.2231 C.3      28        0    0.0000
    405 C         190.9452  213.4662   93.3165 C.3      28        0    0.0000
    406 C         191.1557  214.2000   94.6471 C.3      28        0    0.0000
    407 C         189.4745  213.2669   92.8961 C.3      28        0    0.0000
    408 C         189.3436  211.7889   92.4850 C.3      28        0    0.0000
    409 C         188.3821  211.5305   91.3223 C.3      28        0    0.0000
    410 H         191.0708  211.7337   91.1549 H        28        0    0.0000
    411 H         190.9140  210.2908   92.1775 H        28        0    0.0000
    412 H         191.5191  211.5237   94.1638 H        28        0    0.0000
    413 H         192.6543  212.1419   92.9554 H        28        0    0.0000
    414 H         191.4111  214.0921   92.5408 H        28        0    0.0000
    415 H         190.5778  215.1317   94.6348 H        28        0    0.0000
    416 H         190.7489  213.5889   95.4614 H        28        0    0.0000
    417 H         189.2504  213.9342   92.0545 H        28        0    0.0000
    418 H         188.7632  213.5112   93.6921 H        28        0    0.0000
    419 H         189.0172  211.2157   93.3650 H        28        0    0.0000
    420 H         188.8910  211.6996   90.3659 H        28        0    0.0000
    421 H         188.0748  210.4780   91.3335 H        28        0    0.0000
    422 C         186.5586  213.5159   94.9881 C.3      29        0    0.0000
    423 C         187.1066  212.5167   93.9788 C.3      29        0    0.0000
    424 C         187.0115  213.2816   92.6546 C.3      29        0    0.0000
    425 C         187.1107  212.4224   91.3904 C.3      29        0    0.0000
    426 C         185.7392  214.1432   92.7742 C.3      29        0    0.0000
    427 C         185.3428  214.1021   94.2630 C.3      29        0    0.0000
    428 C         184.8037  215.4150   94.8393 C.3      29        0    0.0000
    429 H         186.2822  213.0344   95.9313 H        29        0    0.0000
    430 H         187.3164  214.2771   95.2040 H        29        0    0.0000
    431 H         188.1350  212.2231   94.2111 H        29        0    0.0000
    432 H         186.4867  211.6133   93.9784 H        29        0    0.0000
    433 H         187.8631  213.9780   92.6266 H        29        0    0.0000
    434 H         186.2253  211.7791   91.3244 H        29        0    0.0000
    435 H         187.0915  213.0760   90.5103 H        29        0    0.0000
    436 H         184.9109  213.7664   92.1644 H        29        0    0.0000
    437 H         185.9490  215.1573   92.4173 H        29        0    0.0000
    438 H         184.5312  213.3645   94.3536 H        29        0    0.0000
    439 H         184.2562  215.2015   95.7650 H        29        0    0.0000
    440 H         185.6474  216.0591   95.1138 H        29        0    0.0000
    441 C         183.1608  213.3449   91.5120 C.3      30        0    0.0000
    442 C         183.8777  213.9424   92.7131 C.3      30        0    0.0000
    443 C         183.5865  215.4383   92.5768 C.3      30        0    0.0000
    444 C         183.8670  216.2013   93.8737 C.3      30        0    0.0000
    445 C         182.1211  215.4845   92.1066 C.3      30        0    0.0000
    446 C         181.8312  214.1088   91.4717 C.3      30        0    0.0000
    447 C         181.1394  214.1482   90.1031 C.3      30        0    0.0000
    448 H         183.0095  212.2664   91.6214 H        30        0    0.0000
    449 H         183.7592  213.5093   90.6094 H        30        0    0.0000
    450 H         183.4589  213.5407   93.6438 H        30        0    0.0000
    451 H         184.9505  213.7266   92.6988 H        30        0    0.0000
    452 H         184.2181  215.8400   91.7711 H        30        0    0.0000
    453 H         184.3159  217.1762   93.6494 H        30        0    0.0000
    454 H         182.9197  216.4020   94.3881 H        30        0    0.0000
    455 H         181.4380  215.6388   92.9512 H        30        0    0.0000
    456 H         181.9632  216.3187   91.4149 H        30        0    0.0000
    457 H         181.1410  213.5885   92.1524 H        30        0    0.0000
    458 H         181.9018  214.2197   89.3183 H        30        0    0.0000
    459 H         180.5340  215.0600   90.0367 H        30        0    0.0000
    460 C         179.6605  212.7307   86.0677 C.3      31        0    0.0000
    461 C         180.4135  213.3139   87.2536 C.3      31        0    0.0000
    462 C         179.5164  212.9739   88.4504 C.3      31        0    0.0000
    463 C         180.2275  212.9226   89.8086 C.3      31        0    0.0000
    464 C         178.7575  211.6914   88.0518 C.3      31        0    0.0000
    465 C         179.1721  211.3824   86.6015 C.3      31        0    0.0000
    466 C         178.0630  210.7850   85.7321 C.3      31        0    0.0000
    467 H         178.8175  213.3783   85.7974 H        31        0    0.0000
    468 H         180.3030  212.6197   85.1889 H        31        0    0.0000
    469 H         181.3994  212.8425   87.3290 H        31        0    0.0000
    470 H         180.5657  214.3929   87.1502 H        31        0    0.0000
    471 H         178.7639  213.7731   88.5251 H        31        0    0.0000
    472 H         179.4743  212.8471   90.6019 H        31        0    0.0000
    473 H         180.8324  212.0097   89.8620 H        31        0    0.0000
    474 H         177.6788  211.8777   88.1250 H        31        0    0.0000
    475 H         178.9773  210.8413   88.7061 H        31        0    0.0000
    476 H         180.0281  210.6925   86.6290 H        31        0    0.0000
    477 H         177.5316  211.5810   85.1971 H        31        0    0.0000
    478 H         178.5103  210.1373   84.9687 H        31        0    0.0000
    479 C         177.0418  209.9524   86.5570 C.3      32        0    0.0000
    480 C         175.7208  210.6839   86.8355 C.3      32        0    0.0000
    481 H         176.8160  209.0543   85.9679 H        32        0    0.0000
    482 H         177.5107  209.6081   87.4862 H        32        0    0.0000
    483 H         175.8245  211.7651   86.6867 H        32        0    0.0000
    484 H         174.9787  210.3364   86.1053 H        32        0    0.0000
    485 C         172.2127  208.5815   86.9577 C.3      33        0    0.0000
    486 C         173.7232  208.7893   86.8584 C.3      33        0    0.0000
    487 C         174.2097  209.1685   88.2678 C.3      33        0    0.0000
    488 C         175.1235  210.4010   88.2574 C.3      33        0    0.0000
    489 C         172.9243  209.3492   89.0899 C.3      33        0    0.0000
    490 C         171.9080  208.3971   88.4466 C.3      33        0    0.0000
    491 C         172.0570  206.9279   88.8818 C.3      33        0    0.0000
    492 H         171.7057  209.4846   86.5944 H        33        0    0.0000
    493 H         171.8704  207.7471   86.3376 H        33        0    0.0000
    494 H         173.9552  209.5524   86.1075 H        33        0    0.0000
    495 H         174.2129  207.8624   86.5375 H        33        0    0.0000
    496 H         174.7677  208.3127   88.6734 H        33        0    0.0000
    497 H         175.9371  210.2782   88.9817 H        33        0    0.0000
    498 H         174.5491  211.2803   88.5730 H        33        0    0.0000
    499 H         173.0860  209.1500   90.1537 H        33        0    0.0000
    500 H         172.5569  210.3799   89.0007 H        33        0    0.0000
    501 H         170.8858  208.7352   88.6592 H        33        0    0.0000
    502 H         172.5415  206.8506   89.8610 H        33        0    0.0000
    503 H         172.7061  206.4045   88.1692 H        33        0    0.0000
    504 C         167.9101  206.0617   86.3708 C.3      34        0    0.0000
    505 C         169.0322  205.4059   87.1611 C.3      34        0    0.0000
    506 C         169.7669  206.6019   87.7700 C.3      34        0    0.0000
    507 C         170.6897  206.1884   88.9191 C.3      34        0    0.0000
    508 C         168.6327  207.5636   88.1692 C.3      34        0    0.0000
    509 C         167.4159  207.1734   87.3051 C.3      34        0    0.0000
    510 C         166.6987  208.3397   86.6135 C.3      34        0    0.0000
    511 H         167.1148  205.3513   86.1242 H        34        0    0.0000
    512 H         168.3080  206.4586   85.4306 H        34        0    0.0000
    513 H         168.6176  204.7567   87.9419 H        34        0    0.0000
    514 H         169.6836  204.8012   86.5228 H        34        0    0.0000
    515 H         170.3602  207.0813   86.9777 H        34        0    0.0000
    516 H         170.2024  206.3786   89.8827 H        34        0    0.0000
    517 H         170.8721  205.1084   88.8665 H        34        0    0.0000
    518 H         168.3697  207.4492   89.2282 H        34        0    0.0000
    519 H         168.9420  208.6049   88.0304 H        34        0    0.0000
    520 H         166.6811  206.7180   87.9856 H        34        0    0.0000
    521 H         167.2792  208.6474   85.7356 H        34        0    0.0000
    522 H         166.6794  209.1993   87.2941 H        34        0    0.0000
    523 C         164.2554  204.6232   87.4660 C.3      35        0    0.0000
    524 C         165.2251  205.8070   87.4195 C.3      35        0    0.0000
    525 C         164.9705  206.5200   86.0849 C.3      35        0    0.0000
    526 C         165.2417  208.0247   86.1680 C.3      35        0    0.0000
    527 C         163.5187  206.1496   85.7637 C.3      35        0    0.0000
    528 C         163.4554  204.6702   86.1577 C.3      35        0    0.0000
    529 C         162.0383  204.1138   86.3217 C.3      35        0    0.0000
    530 H         164.7895  203.6721   87.5658 H        35        0    0.0000
    531 H         163.6010  204.7216   88.3404 H        35        0    0.0000
    532 H         166.2661  205.4748   87.4949 H        35        0    0.0000
    533 H         165.0331  206.4699   88.2717 H        35        0    0.0000
    534 H         165.6243  206.0680   85.3248 H        35        0    0.0000
    535 H         164.5509  208.4778   86.8891 H        35        0    0.0000
    536 H         165.0452  208.5005   85.2001 H        35        0    0.0000
    537 H         163.2825  206.3016   84.7057 H        35        0    0.0000
    538 H         162.8193  206.7461   86.3628 H        35        0    0.0000
    539 H         163.9981  204.0827   85.4029 H        35        0    0.0000
    540 H         161.5657  204.5347   87.2169 H        35        0    0.0000
    541 H         162.0907  203.0288   86.4723 H        35        0    0.0000
    542 C         158.7018  201.5290   85.5781 C.3      36        0    0.0000
    543 C         159.3581  202.8084   86.0780 C.3      36        0    0.0000
    544 C         160.0675  203.3394   84.8280 C.3      36        0    0.0000
    545 C         161.1448  204.3979   85.0832 C.3      36        0    0.0000
    546 C         160.5357  202.0856   84.0637 C.3      36        0    0.0000
    547 C         159.7976  200.8984   84.7127 C.3      36        0    0.0000
    548 C         159.3262  199.8065   83.7474 C.3      36        0    0.0000
    549 H         158.4012  200.8748   86.4024 H        36        0    0.0000
    550 H         157.8072  201.7753   84.9956 H        36        0    0.0000
    551 H         158.6232  203.5198   86.4672 H        36        0    0.0000
    552 H         160.0629  202.5727   86.8830 H        36        0    0.0000
    553 H         159.2984  203.8204   84.2049 H        36        0    0.0000
    554 H         161.7858  204.4772   84.1972 H        36        0    0.0000
    555 H         160.6640  205.3748   85.2125 H        36        0    0.0000
    556 H         161.6171  201.9252   84.1308 H        36        0    0.0000
    557 H         160.3058  202.1991   82.9987 H        36        0    0.0000
    558 H         160.5116  200.4204   85.4003 H        36        0    0.0000
    559 H         159.9710  199.8099   82.8605 H        36        0    0.0000
    560 H         159.4519  198.8275   84.2246 H        36        0    0.0000
    561 C         155.1387  199.4656   85.7821 C.3      37        0    0.0000
    562 C         156.6465  199.5749   85.5428 C.3      37        0    0.0000
    563 C         156.9032  199.0656   84.1131 C.3      37        0    0.0000
    564 C         157.8441  199.9533   83.2891 C.3      37        0    0.0000
    565 C         155.5079  198.9579   83.4897 C.3      37        0    0.0000
    566 C         154.5916  198.5790   84.6581 C.3      37        0    0.0000
    567 C         154.6523  197.0757   84.9889 C.3      37        0    0.0000
    568 H         154.9114  199.0958   86.7865 H        37        0    0.0000
    569 H         154.6946  200.4659   85.6996 H        37        0    0.0000
    570 H         156.9757  200.6092   85.6917 H        37        0    0.0000
    571 H         157.1930  198.9543   86.2625 H        37        0    0.0000
    572 H         157.3269  198.0532   84.1784 H        37        0    0.0000
    573 H         157.7771  199.6703   82.2318 H        37        0    0.0000
    574 H         157.5370  201.0033   83.3570 H        37        0    0.0000
    575 H         155.4788  198.2293   82.6730 H        37        0    0.0000
    576 H         155.1965  199.9276   83.0802 H        37        0    0.0000
    577 H         153.5574  198.8592   84.4205 H        37        0    0.0000
    578 H         155.1703  196.5178   84.2010 H        37        0    0.0000
    579 H         153.6336  196.6742   85.0463 H        37        0    0.0000
    580 C         156.5399  193.6368   88.0446 C.3      38        0    0.0000
    581 C         156.8400  194.8652   87.1994 C.3      38        0    0.0000
    582 C         155.4531  195.3309   86.7386 C.3      38        0    0.0000
    583 C         155.3541  196.8123   86.3527 C.3      38        0    0.0000
    584 C         154.4716  194.8653   87.8337 C.3      38        0    0.0000
    585 C         155.3100  194.0654   88.8475 C.3      38        0    0.0000
    586 C         154.5867  192.8720   89.4765 C.3      38        0    0.0000
    587 H         156.3126  192.7788   87.4002 H        38        0    0.0000
    588 H         157.3819  193.3675   88.6895 H        38        0    0.0000
    589 H         157.3455  195.6179   87.8140 H        38        0    0.0000
    590 H         157.4940  194.6295   86.3539 H        38        0    0.0000
    591 H         155.2066  194.7579   85.8323 H        38        0    0.0000
    592 H         154.8079  197.3487   87.1377 H        38        0    0.0000
    593 H         156.3622  197.2424   86.3216 H        38        0    0.0000
    594 H         153.6976  194.2370   87.3755 H        38        0    0.0000
    595 H         153.9548  195.6945   88.3282 H        38        0    0.0000
    596 H         155.6388  194.7538   89.6397 H        38        0    0.0000
    597 H         155.2108  192.4194   90.2560 H        38        0    0.0000
    598 H         153.6718  193.2217   89.9695 H        38        0    0.0000
    599 C         153.2616  188.2849   89.5663 C.3      39        0    0.0000
    600 C         154.2790  189.4127   89.4640 C.3      39        0    0.0000
    601 C         153.4265  190.6016   89.0085 C.3      39        0    0.0000
    602 C         154.2063  191.7866   88.4307 C.3      39        0    0.0000
    603 C         152.3512  189.9990   88.0833 C.3      39        0    0.0000
    604 C         152.4126  188.4751   88.3051 C.3      39        0    0.0000
    605 C         151.0618  187.7530   88.3068 C.3      39        0    0.0000
    606 H         153.7422  187.3020   89.5941 H        39        0    0.0000
    607 H         152.6713  188.4010   90.4819 H        39        0    0.0000
    608 H         154.7743  189.6044   90.4209 H        39        0    0.0000
    609 H         155.0482  189.1515   88.7290 H        39        0    0.0000
    610 H         152.9017  190.9777   89.8997 H        39        0    0.0000
    611 H         155.1237  191.4155   87.9586 H        39        0    0.0000
    612 H         153.6111  192.2548   87.6377 H        39        0    0.0000
    613 H         152.5263  190.2223   87.0253 H        39        0    0.0000
    614 H         151.3736  190.4263   88.3313 H        39        0    0.0000
    615 H         152.9894  188.0567   87.4663 H        39        0    0.0000
    616 H         150.8770  187.3369   87.3094 H        39        0    0.0000
    617 H         151.1102  186.9037   88.9985 H        39        0    0.0000
    618 C         147.0311  187.1791   86.8009 C.3      40        0    0.0000
    619 C         147.5692  188.4113   87.5322 C.3      40        0    0.0000
    620 C         148.5252  187.8938   88.6219 C.3      40        0    0.0000
    621 C         149.8545  188.6543   88.7047 C.3      40        0    0.0000
    622 C         148.7207  186.4119   88.2861 C.3      40        0    0.0000
    623 C         147.3832  185.9740   87.6798 C.3      40        0    0.0000
    624 C         146.3201  185.6772   88.7544 C.3      40        0    0.0000
    625 H         145.9628  187.2692   86.5825 H        40        0    0.0000
    626 H         147.5494  187.0856   85.8379 H        40        0    0.0000
    627 H         148.0595  189.0850   86.8208 H        40        0    0.0000
    628 H         146.7468  188.9705   87.9936 H        40        0    0.0000
    629 H         148.0107  187.9591   89.5914 H        40        0    0.0000
    630 H         149.8236  189.5145   88.0254 H        40        0    0.0000
    631 H         150.0056  189.0523   89.7147 H        40        0    0.0000
    632 H         149.0006  185.8252   89.1671 H        40        0    0.0000
    633 H         149.5173  186.2910   87.5406 H        40        0    0.0000
    634 H         147.5349  185.0812   87.0599 H        40        0    0.0000
    635 H         145.3685  185.3818   88.2989 H        40        0    0.0000
    636 H         146.1263  186.5866   89.3356 H        40        0    0.0000
    637 C         149.5808  182.1589   90.1625 C.3      41        0    0.0000
    638 C         149.0670  183.5755   90.4310 C.3      41        0    0.0000
    639 C         148.1017  183.9187   89.2822 C.3      41        0    0.0000
    640 C         146.7874  184.5649   89.7375 C.3      41        0    0.0000
    641 C         147.8773  182.5859   88.5608 C.3      41        0    0.0000
    642 C         149.2058  181.8371   88.7118 C.3      41        0    0.0000
    643 C         150.2635  182.3063   87.6948 C.3      41        0    0.0000
    644 H         150.6505  182.0669   90.3730 H        41        0    0.0000
    645 H         149.0603  181.4617   90.8316 H        41        0    0.0000
    646 H         148.5894  183.6207   91.4160 H        41        0    0.0000
    647 H         149.9002  184.2878   90.4422 H        41        0    0.0000
    648 H         148.6178  184.5990   88.5897 H        41        0    0.0000
    649 H         146.0056  183.7980   89.7923 H        41        0    0.0000
    650 H         146.8947  184.9818   90.7455 H        41        0    0.0000
    651 H         147.5866  182.7295   87.5152 H        41        0    0.0000
    652 H         147.0782  182.0156   89.0518 H        41        0    0.0000
    653 H         149.0365  180.7595   88.5918 H        41        0    0.0000
    654 H         151.2507  182.3932   88.1621 H        41        0    0.0000
    655 H         149.9966  183.3039   87.3263 H        41        0    0.0000
    656 C         151.3030  177.9191   85.5656 C.3      42        0    0.0000
    657 C         151.8030  179.3157   85.9317 C.3      42        0    0.0000
    658 C         150.7566  179.9238   86.8816 C.3      42        0    0.0000
    659 C         150.3551  181.3472   86.4727 C.3      42        0    0.0000
    660 C         149.5938  178.9196   86.8769 C.3      42        0    0.0000
    661 C         150.2502  177.5578   86.6166 C.3      42        0    0.0000
    662 C         150.8855  176.9153   87.8632 C.3      42        0    0.0000
    663 H         150.8275  177.9602   84.5773 H        42        0    0.0000
    664 H         152.1197  177.1933   85.5014 H        42        0    0.0000
    665 H         151.9578  179.9151   85.0278 H        42        0    0.0000
    666 H         152.7702  179.2498   86.4438 H        42        0    0.0000
    667 H         151.1925  179.9507   87.8903 H        42        0    0.0000
    668 H         149.3967  181.3347   85.9408 H        42        0    0.0000
    669 H         151.0998  181.7468   85.7738 H        42        0    0.0000
    670 H         149.0219  178.9497   87.8094 H        42        0    0.0000
    671 H         148.8987  179.1455   86.0577 H        42        0    0.0000
    672 H         149.5196  176.8624   86.1840 H        42        0    0.0000
    673 H         151.9276  177.2295   87.9849 H        42        0    0.0000
    674 H         150.8993  175.8255   87.7401 H        42        0    0.0000
    675 C         150.0898  177.2424   89.1585 C.3      43        0    0.0000
    676 C         148.9985  176.2165   89.4961 C.3      43        0    0.0000
    677 H         150.8152  177.2513   89.9821 H        43        0    0.0000
    678 H         149.6777  178.2562   89.0928 H        43        0    0.0000
    679 H         149.0972  175.3128   88.8832 H        43        0    0.0000
    680 H         149.1355  175.9045   90.5394 H        43        0    0.0000
    681 C         147.6835  179.7393   87.0024 C.3      44        0    0.0000
    682 C         148.3750  178.7685   87.9494 C.3      44        0    0.0000
    683 C         147.3098  177.6895   88.1703 C.3      44        0    0.0000
    684 C         147.5389  176.7773   89.3793 C.3      44        0    0.0000
    685 C         145.9629  178.4384   88.1487 C.3      44        0    0.0000
    686 C         146.2712  179.8406   87.5881 C.3      44        0    0.0000
    687 C         145.2107  180.4244   86.6497 C.3      44        0    0.0000
    688 H         148.1871  180.7105   86.9730 H        44        0    0.0000
    689 H         147.6801  179.3269   85.9874 H        44        0    0.0000
    690 H         149.2923  178.3582   87.5161 H        44        0    0.0000
    691 H         148.6388  179.2837   88.8796 H        44        0    0.0000
    692 H         147.3245  177.0402   87.2819 H        44        0    0.0000
    693 H         147.2997  177.3304   90.2954 H        44        0    0.0000
    694 H         146.8404  175.9337   89.3293 H        44        0    0.0000
    695 H         145.5122  178.5326   89.1425 H        44        0    0.0000
    696 H         145.2451  177.8831   87.5354 H        44        0    0.0000
    697 H         146.3321  180.5198   88.4518 H        44        0    0.0000
    698 H         145.0755  181.4879   86.8798 H        44        0    0.0000
    699 H         145.5761  180.3694   85.6174 H        44        0    0.0000
    700 C         143.3449  177.7489   89.9116 C.3      45        0    0.0000
    701 C         144.0708  178.8271   89.1027 C.3      45        0    0.0000
    702 C         143.8567  178.4741   87.6250 C.3      45        0    0.0000
    703 C         143.8254  179.7152   86.7288 C.3      45        0    0.0000
    704 C         142.5539  177.6677   87.6448 C.3      45        0    0.0000
    705 C         142.7225  176.7892   88.8889 C.3      45        0    0.0000
    706 C         141.4273  176.1530   89.4009 C.3      45        0    0.0000
    707 H         144.0324  177.2189   90.5796 H        45        0    0.0000
    708 H         142.5784  178.2180   90.5399 H        45        0    0.0000
    709 H         145.1378  178.8608   89.3479 H        45        0    0.0000
    710 H         143.6505  179.8104   89.3454 H        45        0    0.0000
    711 H         144.6751  177.8107   87.3092 H        45        0    0.0000
    712 H         143.0909  180.4277   87.1227 H        45        0    0.0000
    713 H         143.4948  179.4466   85.7186 H        45        0    0.0000
    714 H         142.4289  177.0703   86.7361 H        45        0    0.0000
    715 H         141.6841  178.3289   87.7456 H        45        0    0.0000
    716 H         143.4577  176.0024   88.6657 H        45        0    0.0000
    717 H         140.8235  176.8964   89.9345 H        45        0    0.0000
    718 H         141.6720  175.3662   90.1245 H        45        0    0.0000
    719 C         138.2352  172.5589   88.0888 C.3      46        0    0.0000
    720 C         138.4483  174.0645   88.1273 C.3      46        0    0.0000
    721 C         139.8908  174.2097   88.6283 C.3      46        0    0.0000
    722 C         140.5839  175.5268   88.2567 C.3      46        0    0.0000
    723 C         140.6202  172.9276   88.1770 C.3      46        0    0.0000
    724 C         139.5532  172.0410   87.5091 C.3      46        0    0.0000
    725 C         139.7339  170.5386   87.7390 C.3      46        0    0.0000
    726 H         138.0696  172.1728   89.1020 H        46        0    0.0000
    727 H         137.3748  172.2826   87.4718 H        46        0    0.0000
    728 H         138.3164  174.4787   87.1218 H        46        0    0.0000
    729 H         137.7332  174.5614   88.7903 H        46        0    0.0000
    730 H         139.8536  174.1790   89.7274 H        46        0    0.0000
    731 H         141.2375  175.3535   87.3934 H        46        0    0.0000
    732 H         139.8266  176.2522   87.9365 H        46        0    0.0000
    733 H         141.0520  172.4344   89.0567 H        46        0    0.0000
    734 H         141.4469  173.1243   87.4863 H        46        0    0.0000
    735 H         139.5602  172.2502   86.4294 H        46        0    0.0000
    736 H         139.8577  170.0214   86.7802 H        46        0    0.0000
    737 H         140.6544  170.3675   88.3098 H        46        0    0.0000
    738 C         138.2772  166.1926   89.2761 C.3      47        0    0.0000
    739 C         137.8864  167.6344   89.5691 C.3      47        0    0.0000
    740 C         138.4198  168.3882   88.3465 C.3      47        0    0.0000
    741 C         138.5427  169.9060   88.5119 C.3      47        0    0.0000
    742 C         139.7173  167.6556   87.9524 C.3      47        0    0.0000
    743 C         139.7046  166.3284   88.7359 C.3      47        0    0.0000
    744 C         140.2398  165.1093   87.9787 C.3      47        0    0.0000
    745 H         138.2348  165.5672   90.1733 H        47        0    0.0000
    746 H         137.5938  165.7677   88.5326 H        47        0    0.0000
    747 H         136.8040  167.7495   89.6832 H        47        0    0.0000
    748 H         138.3635  167.9657   90.4980 H        47        0    0.0000
    749 H         137.7016  168.2201   87.5298 H        47        0    0.0000
    750 H         137.6129  170.3793   88.1747 H        47        0    0.0000
    751 H         138.6485  170.1430   89.5772 H        47        0    0.0000
    752 H         140.6199  168.2219   88.2061 H        47        0    0.0000
    753 H         139.7397  167.5090   86.8671 H        47        0    0.0000
    754 H         140.3630  166.4693   89.6065 H        47        0    0.0000
    755 H         139.6009  164.9199   87.1080 H        47        0    0.0000
    756 H         141.2398  165.3383   87.5918 H        47        0    0.0000
    757 C         143.9045  162.5887   88.9426 C.3      48        0    0.0000
    758 C         142.9019  163.6939   88.6478 C.3      48        0    0.0000
    759 C         141.5625  162.9505   88.5665 C.3      48        0    0.0000
    760 C         140.3196  163.8089   88.8335 C.3      48        0    0.0000
    761 C         141.7178  161.7110   89.4715 C.3      48        0    0.0000
    762 C         143.1728  161.7285   89.9749 C.3      48        0    0.0000
    763 C         143.8124  160.3468   90.1324 C.3      48        0    0.0000
    764 H         144.1184  162.0171   88.0312 H        48        0    0.0000
    765 H         144.8489  162.9846   89.3284 H        48        0    0.0000
    766 H         142.9178  164.4288   89.4599 H        48        0    0.0000
    767 H         143.1350  164.2193   87.7164 H        48        0    0.0000
    768 H         141.4649  162.5764   87.5364 H        48        0    0.0000
    769 H         139.4235  163.2069   88.6408 H        48        0    0.0000
    770 H         140.2931  164.0804   89.8954 H        48        0    0.0000
    771 H         141.5133  160.8096   88.8804 H        48        0    0.0000
    772 H         141.0175  161.7034   90.3134 H        48        0    0.0000
    773 H         143.1955  162.2552   90.9401 H        48        0    0.0000
    774 H         144.1278  159.9624   89.1552 H        48        0    0.0000
    775 H         144.7187  160.4347   90.7433 H        48        0    0.0000
    776 C         140.1582  159.0258   88.9555 C.3      49        0    0.0000
    777 C         140.8768  160.2550   89.5182 C.3      49        0    0.0000
    778 C         141.4148  159.8539   90.8961 C.3      49        0    0.0000
    779 C         142.8566  159.3201   90.8023 C.3      49        0    0.0000
    780 C         140.3819  158.8166   91.3547 C.3      49        0    0.0000
    781 C         140.0814  157.9980   90.0966 C.3      49        0    0.0000
    782 C         138.7451  157.2529   90.1913 C.3      49        0    0.0000
    783 H         139.1681  159.3138   88.5842 H        49        0    0.0000
    784 H         140.7139  158.6090   88.1077 H        49        0    0.0000
    785 H         140.1483  161.0671   89.6363 H        49        0    0.0000
    786 H         141.6552  160.6196   88.8402 H        49        0    0.0000
    787 H         141.3994  160.7215   91.5683 H        49        0    0.0000
    788 H         142.8626  158.4022   90.2021 H        49        0    0.0000
    789 H         143.2452  159.0497   91.7900 H        49        0    0.0000
    790 H         139.4759  159.3332   91.6978 H        49        0    0.0000
    791 H         140.7306  158.1858   92.1778 H        49        0    0.0000
    792 H         140.8894  157.2660   89.9581 H        49        0    0.0000
    793 H         138.5529  156.6956   89.2670 H        49        0    0.0000
    794 H         137.9305  157.9786   90.3002 H        49        0    0.0000
    795 C         138.7108  156.2779   91.4031 C.3      50        0    0.0000
    796 C         137.4362  155.4256   91.4822 C.3      50        0    0.0000
    797 H         139.5668  155.6006   91.2891 H        50        0    0.0000
    798 H         138.8751  156.8370   92.3318 H        50        0    0.0000
    799 H         137.6718  154.3549   91.4845 H        50        0    0.0000
    800 H         136.9420  155.6400   92.4384 H        50        0    0.0000
    801 C         134.3074  152.6075   89.8757 C.3      51        0    0.0000
    802 C         135.2431  153.6620   89.3048 C.3      51        0    0.0000
    803 C         135.1801  154.7943   90.3376 C.3      51        0    0.0000
    804 C         136.3922  155.7344   90.3538 C.3      51        0    0.0000
    805 C         134.8520  154.1142   91.6827 C.3      51        0    0.0000
    806 C         134.6454  152.6213   91.3680 C.3      51        0    0.0000
    807 C         133.5685  151.9325   92.2100 C.3      51        0    0.0000
    808 H         133.2626  152.8939   89.7038 H        51        0    0.0000
    809 H         134.4724  151.6250   89.4230 H        51        0    0.0000
    810 H         136.2514  153.2443   89.2106 H        51        0    0.0000
    811 H         134.9252  153.9959   88.3121 H        51        0    0.0000
    812 H         134.3097  155.4160   90.0799 H        51        0    0.0000
    813 H         136.8984  155.6790   89.3827 H        51        0    0.0000
    814 H         136.0427  156.7675   90.4672 H        51        0    0.0000
    815 H         133.9399  154.5625   92.0961 H        51        0    0.0000
    816 H         135.6380  154.2457   92.4337 H        51        0    0.0000
    817 H         135.6063  152.1050   91.5081 H        51        0    0.0000
    818 H         132.7442  151.5974   91.5693 H        51        0    0.0000
    819 H         133.9915  151.0338   92.6744 H        51        0    0.0000
    820 C         130.1368  154.2983   94.0083 C.3      52        0    0.0000
    821 C         131.0241  153.3604   94.8313 C.3      52        0    0.0000
    822 C         131.6398  152.3632   93.8437 C.3      52        0    0.0000
    823 C         133.0057  152.8542   93.3282 C.3      52        0    0.0000
    824 C         130.5522  152.2648   92.7665 C.3      52        0    0.0000
    825 C         130.0586  153.7033   92.5925 C.3      52        0    0.0000
    826 C         128.6674  153.7689   91.9521 C.3      52        0    0.0000
    827 H         129.1518  154.3851   94.4809 H        52        0    0.0000
    828 H         130.5691  155.3048   93.9722 H        52        0    0.0000
    829 H         130.3952  152.8182   95.5488 H        52        0    0.0000
    830 H         131.7715  153.9101   95.4124 H        52        0    0.0000
    831 H         131.7729  151.3896   94.3328 H        52        0    0.0000
    832 H         133.7220  152.8639   94.1587 H        52        0    0.0000
    833 H         132.9440  153.8828   92.9571 H        52        0    0.0000
    834 H         129.7378  151.6245   93.1299 H        52        0    0.0000
    835 H         130.9074  151.8389   91.8233 H        52        0    0.0000
    836 H         130.7724  154.2397   91.9517 H        52        0    0.0000
    837 H         128.7192  153.4762   90.8970 H        52        0    0.0000
    838 H         128.3033  154.8028   91.9778 H        52        0    0.0000
    839 C         127.6454  152.8608   92.6943 C.3      53        0    0.0000
    840 C         126.5153  153.6327   93.3904 C.3      53        0    0.0000
    841 H         128.2070  152.3135   93.4622 H        53        0    0.0000
    842 H         127.2477  152.1096   92.0019 H        53        0    0.0000
    843 H         126.9277  154.5804   93.7599 H        53        0    0.0000
    844 H         125.7165  153.8922   92.6857 H        53        0    0.0000
    845 C         127.5309  149.4893   94.4618 C.3      54        0    0.0000
    846 C         127.4670  150.9620   94.0869 C.3      54        0    0.0000
    847 C         126.0638  151.3705   94.5400 C.3      54        0    0.0000
    848 C         125.9060  152.8904   94.6298 C.3      54        0    0.0000
    849 C         125.8781  150.6238   95.8736 C.3      54        0    0.0000
    850 C         126.8698  149.4426   95.8452 C.3      54        0    0.0000
    851 C         126.2849  148.0824   96.2462 C.3      54        0    0.0000
    852 H         128.5604  149.1187   94.4880 H        54        0    0.0000
    853 H         126.9811  148.8988   93.7210 H        54        0    0.0000
    854 H         128.2373  151.5253   94.6277 H        54        0    0.0000
    855 H         127.6175  151.1186   93.0143 H        54        0    0.0000
    856 H         125.3382  150.9686   93.8179 H        54        0    0.0000
    857 H         124.8463  153.1556   94.7246 H        54        0    0.0000
    858 H         126.4035  153.2533   95.5371 H        54        0    0.0000
    859 H         126.1176  151.2704   96.7271 H        54        0    0.0000
    860 H         124.8370  150.3078   95.9980 H        54        0    0.0000
    861 H         127.6526  149.6726   96.5833 H        54        0    0.0000
    862 H         125.6953  148.2022   97.1628 H        54        0    0.0000
    863 H         127.1074  147.3991   96.4889 H        54        0    0.0000
    864 C         122.7127  145.4931   97.0159 C.3      55        0    0.0000
    865 C         123.8955  146.4491   97.0362 C.3      55        0    0.0000
    866 C         124.5441  146.2460   95.6610 C.3      55        0    0.0000
    867 C         125.3927  147.4204   95.1571 C.3      55        0    0.0000
    868 C         123.4025  145.8036   94.7226 C.3      55        0    0.0000
    869 C         122.1478  145.6765   95.6058 C.3      55        0    0.0000
    870 C         121.1998  144.5413   95.2116 C.3      55        0    0.0000
    871 H         123.0542  144.4629   97.1746 H        55        0    0.0000
    872 H         121.9781  145.7337   97.7905 H        55        0    0.0000
    873 H         123.5354  147.4741   97.1758 H        55        0    0.0000
    874 H         124.5889  146.2239   97.8525 H        55        0    0.0000
    875 H         125.2264  145.3876   95.7513 H        55        0    0.0000
    876 H         126.0365  147.0699   94.3416 H        55        0    0.0000
    877 H         124.7310  148.1828   94.7292 H        55        0    0.0000
    878 H         123.6671  144.8407   94.2682 H        55        0    0.0000
    879 H         123.2268  146.5046   93.8998 H        55        0    0.0000
    880 H         121.6071  146.6337   95.5734 H        55        0    0.0000
    881 H         120.3352  144.5192   95.8857 H        55        0    0.0000
    882 H         120.8087  144.7290   94.2046 H        55        0    0.0000
    883 C         121.8956  143.1513   95.2256 C.3      56        0    0.0000
    884 C         120.9547  141.9794   94.9114 C.3      56        0    0.0000
    885 H         122.2935  143.0064   96.2382 H        56        0    0.0000
    886 H         122.7579  143.1630   94.5488 H        56        0    0.0000
    887 H         121.3197  141.4839   94.0027 H        56        0    0.0000
    888 H         120.9749  141.2268   95.7084 H        56        0    0.0000
    889 C         116.9153  140.4072   96.4221 C.3      57        0    0.0000
    890 C         118.4057  140.6123   96.1402 C.3      57        0    0.0000
    891 C         118.5070  141.2234   94.7311 C.3      57        0    0.0000
    892 C         119.4736  142.4097   94.6285 C.3      57        0    0.0000
    893 C         117.0675  141.6116   94.3787 C.3      57        0    0.0000
    894 C         116.2019  140.5552   95.0738 C.3      57        0    0.0000
    895 C         116.1309  139.2378   94.2786 C.3      57        0    0.0000
    896 H         116.7227  139.4527   96.9212 H        57        0    0.0000
    897 H         116.5717  141.1993   97.0997 H        57        0    0.0000
    898 H         118.8492  141.2494   96.9133 H        57        0    0.0000
    899 H         118.9349  139.6526   96.1685 H        57        0    0.0000
    900 H         118.8279  140.4348   94.0355 H        57        0    0.0000
    901 H         119.4214  142.8344   93.6189 H        57        0    0.0000
    902 H         119.1791  143.2047   95.3232 H        57        0    0.0000
    903 H         116.9060  141.6486   93.2965 H        57        0    0.0000
    904 H         116.8294  142.6038   94.7836 H        57        0    0.0000
    905 H         115.1879  140.9486   95.2201 H        57        0    0.0000
    906 H         116.9822  138.5886   94.5115 H        57        0    0.0000
    907 H         116.1818  139.4573   93.2055 H        57        0    0.0000
    908 C         114.8064  138.4682   94.5529 C.3      58        0    0.0000
    909 C         113.5794  139.0683   93.8516 C.3      58        0    0.0000
    910 H         114.9490  137.4475   94.1755 H        58        0    0.0000
    911 H         114.6458  138.3829   95.6341 H        58        0    0.0000
    912 H         113.3362  140.0595   94.2519 H        58        0    0.0000
    913 H         113.8284  139.2103   92.7921 H        58        0    0.0000
    914 C         110.6494  137.1952   96.5658 C.3      59        0    0.0000
    915 C         112.1368  137.4797   96.3402 C.3      59        0    0.0000
    916 C         112.4610  137.0083   94.9183 C.3      59        0    0.0000
    917 C         112.3074  138.1526   93.8987 C.3      59        0    0.0000
    918 C         111.4707  135.8521   94.7296 C.3      59        0    0.0000
    919 C         110.1739  136.3544   95.3693 C.3      59        0    0.0000
    920 C         109.2229  135.2094   95.7357 C.3      59        0    0.0000
    921 H         110.5126  136.6773   97.5219 H        59        0    0.0000
    922 H         110.0818  138.1312   96.6198 H        59        0    0.0000
    923 H         112.7220  136.8920   97.0588 H        59        0    0.0000
    924 H         112.3823  138.5325   96.5126 H        59        0    0.0000
    925 H         113.4909  136.6310   94.8775 H        59        0    0.0000
    926 H         111.4476  138.7728   94.1799 H        59        0    0.0000
    927 H         112.0985  137.7656   92.8957 H        59        0    0.0000
    928 H         111.8400  134.9667   95.2634 H        59        0    0.0000
    929 H         111.3252  135.5666   93.6835 H        59        0    0.0000
    930 H         109.6710  137.0218   94.6554 H        59        0    0.0000
    931 H         108.5758  134.9643   94.8856 H        59        0    0.0000
    932 H         108.5662  135.5291   96.5534 H        59        0    0.0000
    933 C         113.4377  134.9590   97.3941 C.3      60        0    0.0000
    934 C         112.0197  135.3380   96.9952 C.3      60        0    0.0000
    935 C         111.5201  134.1045   96.2322 C.3      60        0    0.0000
    936 C         109.9962  133.9363   96.1848 C.3      60        0    0.0000
    937 C         112.3002  132.9087   96.8162 C.3      60        0    0.0000
    938 C         113.2918  133.5009   97.8343 C.3      60        0    0.0000
    939 C         114.6412  132.7819   97.9064 C.3      60        0    0.0000
    940 H         114.1109  135.0469   96.5326 H        60        0    0.0000
    941 H         113.8221  135.5968   98.1959 H        60        0    0.0000
    942 H         111.4268  135.5355   97.8948 H        60        0    0.0000
    943 H         111.9970  136.2394   96.3748 H        60        0    0.0000
    944 H         111.8518  134.2160   95.1891 H        60        0    0.0000
    945 H         109.7499  133.1163   95.4997 H        60        0    0.0000
    946 H         109.6380  133.6353   97.1764 H        60        0    0.0000
    947 H         112.8267  132.3945   96.0024 H        60        0    0.0000
    948 H         111.6530  132.1657   97.2940 H        60        0    0.0000
    949 H         112.8153  133.4865   98.8254 H        60        0    0.0000
    950 H         115.0422  132.6281   96.8976 H        60        0    0.0000
    951 H         115.3612  133.4154   98.4379 H        60        0    0.0000
    952 C         111.0601  130.2415   97.8062 C.3      61        0    0.0000
    953 C         112.1617  131.3034   97.7549 C.3      61        0    0.0000
    954 C         113.1023  131.0052   98.9299 C.3      61        0    0.0000
    955 C         114.5488  131.4119   98.6351 C.3      61        0    0.0000
    956 C         112.8966  129.5057   99.1687 C.3      61        0    0.0000
    957 C         111.3810  129.3459   99.0100 C.3      61        0    0.0000
    958 C         110.9094  127.9037   98.8046 C.3      61        0    0.0000
    959 H         110.0694  130.6972   97.9087 H        61        0    0.0000
    960 H         111.0597  129.6704   96.8700 H        61        0    0.0000
    961 H         111.7469  132.3143   97.8306 H        61        0    0.0000
    962 H         112.6866  131.2388   96.7943 H        61        0    0.0000
    963 H         112.7360  131.5541   99.8097 H        61        0    0.0000
    964 H         115.0178  130.6484   98.0030 H        61        0    0.0000
    965 H         115.1291  131.4529   99.5643 H        61        0    0.0000
    966 H         113.2383  129.1992  100.1625 H        61        0    0.0000
    967 H         113.4349  128.9111   98.4200 H        61        0    0.0000
    968 H         110.8886  129.7732   99.8958 H        61        0    0.0000
    969 H         111.4864  127.4253   98.0046 H        61        0    0.0000
    970 H         109.8620  127.9082   98.4798 H        61        0    0.0000
    971 C         111.0209  127.0552  100.1010 C.3      62        0    0.0000
    972 C         110.1400  125.7977  100.1012 C.3      62        0    0.0000
    973 H         112.0682  126.7373  100.1824 H        62        0    0.0000
    974 H         110.8161  127.6859  100.9741 H        62        0    0.0000
    975 H         109.1110  126.0314   99.8037 H        62        0    0.0000
    976 H         110.5350  125.1052   99.3469 H        62        0    0.0000
    977 C         107.5213  122.9637  103.0159 C.3      63        0    0.0000
    978 C         107.8246  124.0976  102.0377 C.3      63        0    0.0000
    979 C         109.2083  123.8010  101.4340 C.3      63        0    0.0000
    980 C         110.1330  125.0250  101.4656 C.3      63        0    0.0000
    981 C         109.7339  122.5985  102.2330 C.3      63        0    0.0000
    982 C         108.4777  121.8248  102.6529 C.3      63        0    0.0000
    983 C         107.8960  120.9207  101.5507 C.3      63        0    0.0000
    984 H         107.7389  123.3069  104.0354 H        63        0    0.0000
    985 H         106.4672  122.6703  102.9917 H        63        0    0.0000
    986 H         107.7812  125.0653  102.5494 H        63        0    0.0000
    987 H         107.0728  124.1211  101.2400 H        63        0    0.0000
    988 H         109.0609  123.4906  100.3899 H        63        0    0.0000
    989 H         111.1548  124.7239  101.7244 H        63        0    0.0000
    990 H         109.7970  125.7124  102.2512 H        63        0    0.0000
    991 H         110.4362  121.9941  101.6506 H        63        0    0.0000
    992 H         110.2622  122.9404  103.1325 H        63        0    0.0000
    993 H         108.6866  121.2194  103.5441 H        63        0    0.0000
    994 H         107.6132  121.5030  100.6672 H        63        0    0.0000
    995 H         106.9785  120.4464  101.9199 H        63        0    0.0000
    996 C         110.8747  119.3986  104.3162 C.3      64        0    0.0000
    997 C         109.8542  120.1567  103.4631 C.3      64        0    0.0000
    998 C         110.1460  119.7784  102.0051 C.3      64        0    0.0000
    999 C         108.8854  119.7952  101.1360 C.3      64        0    0.0000
   1000 C         110.8180  118.4069  102.1289 C.3      64        0    0.0000
   1001 C         111.7405  118.5938  103.3380 C.3      64        0    0.0000
   1002 C         112.2567  117.2906  103.9542 C.3      64        0    0.0000
   1003 H         111.4878  120.0845  104.9106 H        64        0    0.0000
   1004 H         110.3473  118.7422  105.0188 H        64        0    0.0000
   1005 H         109.9338  121.2390  103.6116 H        64        0    0.0000
   1006 H         108.8403  119.8620  103.7590 H        64        0    0.0000
   1007 H         110.8797  120.4938  101.6058 H        64        0    0.0000
   1008 H         108.3723  118.8300  101.2239 H        64        0    0.0000
   1009 H         109.1532  119.9157  100.0798 H        64        0    0.0000
   1010 H         111.3764  118.1420  101.2255 H        64        0    0.0000
   1011 H         110.0758  117.6214  102.3187 H        64        0    0.0000
   1012 H         112.5911  119.2224  103.0364 H        64        0    0.0000
   1013 H         112.1946  117.3362  105.0478 H        64        0    0.0000
   1014 H         113.3168  117.1663  103.7027 H        64        0    0.0000
   1015 C         111.4789  116.0467  103.4436 C.3      65        0    0.0000
   1016 C         112.3682  114.9805  102.7881 C.3      65        0    0.0000
   1017 H         110.7663  116.4060  102.6901 H        65        0    0.0000
   1018 H         110.8836  115.6223  104.2606 H        65        0    0.0000
   1019 H         112.0576  114.8751  101.7407 H        65        0    0.0000
   1020 H         113.4193  115.2919  102.7734 H        65        0    0.0000
   1021 C         111.1751  114.8488  106.7523 C.3      66        0    0.0000
   1022 C         112.1164  115.0284  105.5588 C.3      66        0    0.0000
   1023 C         112.3528  113.6261  104.9699 C.3      66        0    0.0000
   1024 C         112.2469  113.5602  103.4413 C.3      66        0    0.0000
   1025 C         111.3146  112.7397  105.6653 C.3      66        0    0.0000
   1026 C         111.1624  113.3482  107.0635 C.3      66        0    0.0000
   1027 C         112.2929  112.9183  108.0176 C.3      66        0    0.0000
   1028 H         111.4697  115.4734  107.6010 H        66        0    0.0000
   1029 H         110.1659  115.1633  106.4567 H        66        0    0.0000
   1030 H         111.6769  115.7249  104.8363 H        66        0    0.0000
   1031 H         113.0695  115.4599  105.8862 H        66        0    0.0000
   1032 H         113.3522  113.2867  105.2776 H        66        0    0.0000
   1033 H         113.0511  112.9267  103.0485 H        66        0    0.0000
   1034 H         111.3008  113.0942  103.1428 H        66        0    0.0000
   1035 H         111.6226  111.6894  105.6900 H        66        0    0.0000
   1036 H         110.3535  112.7910  105.1375 H        66        0    0.0000
   1037 H         110.1942  113.0552  107.4890 H        66        0    0.0000
   1038 H         111.9505  112.9096  109.0584 H        66        0    0.0000
   1039 H         113.1141  113.6424  107.9585 H        66        0    0.0000
   1040 C         115.2552  111.3227  110.4217 C.3      67        0    0.0000
   1041 C         113.8527  111.7468  109.9886 C.3      67        0    0.0000
   1042 C         113.4251  110.7802  108.8706 C.3      67        0    0.0000
   1043 C         112.8570  111.5154  107.6495 C.3      67        0    0.0000
   1044 C         114.6815  109.9479  108.5716 C.3      67        0    0.0000
   1045 C         115.4453  109.8957  109.9009 C.3      67        0    0.0000
   1046 C         114.9097  108.8494  110.8954 C.3      67        0    0.0000
   1047 H         115.9894  111.9829  109.9424 H        67        0    0.0000
   1048 H         115.3969  111.4130  111.5032 H        67        0    0.0000
   1049 H         113.8521  112.7949  109.6695 H        67        0    0.0000
   1050 H         113.1554  111.6663  110.8308 H        67        0    0.0000
   1051 H         112.6522  110.1137  109.2787 H        67        0    0.0000
   1052 H         112.0724  110.9151  107.1745 H        67        0    0.0000
   1053 H         113.6507  111.6459  106.9040 H        67        0    0.0000
   1054 H         114.4335  108.9568  108.1794 H        67        0    0.0000
   1055 H         115.3029  110.4525  107.8203 H        67        0    0.0000
   1056 H         116.5110  109.7081  109.7177 H        67        0    0.0000
   1057 H         113.8598  108.6109  110.6943 H        67        0    0.0000
   1058 H         114.9480  109.2634  111.9103 H        67        0    0.0000
   1059 C         115.7518  107.5423  110.8776 C.3      68        0    0.0000
   1060 C         115.2937  106.4911  111.8987 C.3      68        0    0.0000
   1061 H         115.6459  107.1108  109.8740 H        68        0    0.0000
   1062 H         116.8134  107.7850  111.0039 H        68        0    0.0000
   1063 H         115.1935  106.9253  112.9004 H        68        0    0.0000
   1064 H         114.2944  106.1446  111.6055 H        68        0    0.0000
   1065 C         114.6229  102.3603  112.2150 C.3      69        0    0.0000
   1066 C         114.4307  103.6979  112.9349 C.3      69        0    0.0000
   1067 C         115.8292  104.2938  113.1303 C.3      69        0    0.0000
   1068 C         116.2123  105.2220  111.9623 C.3      69        0    0.0000
   1069 C         116.6995  103.0367  113.2544 C.3      69        0    0.0000
   1070 C         116.1345  102.0781  112.2032 C.3      69        0    0.0000
   1071 C         116.5102  100.6186  112.4830 C.3      69        0    0.0000
   1072 H         114.0550  101.5777  112.7308 H        69        0    0.0000
   1073 H         114.2405  102.4162  111.1894 H        69        0    0.0000
   1074 H         113.9772  103.5091  113.9161 H        69        0    0.0000
   1075 H         113.7510  104.3612  112.3904 H        69        0    0.0000
   1076 H         115.8618  104.8668  114.0659 H        69        0    0.0000
   1077 H         116.1080  104.6744  111.0178 H        69        0    0.0000
   1078 H         117.2604  105.5326  112.0290 H        69        0    0.0000
   1079 H         116.5817  102.6111  114.2596 H        69        0    0.0000
   1080 H         117.7663  103.2259  113.1021 H        69        0    0.0000
   1081 H         116.5329  102.3674  111.2205 H        69        0    0.0000
   1082 H         117.2123  100.2534  111.7245 H        69        0    0.0000
   1083 H         115.6130   99.9921  112.4139 H        69        0    0.0000
   1084 C         116.5965   96.9315  115.2484 C.3      70        0    0.0000
   1085 C         116.1060   98.1305  114.4489 C.3      70        0    0.0000
   1086 C         117.3695   98.9850  114.3046 C.3      70        0    0.0000
   1087 C         117.1344  100.4427  113.8971 C.3      70        0    0.0000
   1088 C         118.1503   98.7798  115.6175 C.3      70        0    0.0000
   1089 C         117.4900   97.5741  116.3145 C.3      70        0    0.0000
   1090 C         118.4492   96.6189  117.0312 C.3      70        0    0.0000
   1091 H         115.7686   96.3686  115.6906 H        70        0    0.0000
   1092 H         117.1571   96.2547  114.5942 H        70        0    0.0000
   1093 H         115.6966   97.8345  113.4780 H        70        0    0.0000
   1094 H         115.3186   98.6498  115.0061 H        70        0    0.0000
   1095 H         117.9725   98.5303  113.5041 H        70        0    0.0000
   1096 H         116.4767  100.9188  114.6341 H        70        0    0.0000
   1097 H         118.0881  100.9826  113.9307 H        70        0    0.0000
   1098 H         118.1089   99.6524  116.2783 H        70        0    0.0000
   1099 H         119.2091   98.6135  115.3916 H        70        0    0.0000
   1100 H         116.8212   97.9831  117.0869 H        70        0    0.0000
   1101 H         119.0543   97.1890  117.7461 H        70        0    0.0000
   1102 H         117.8663   95.8979  117.6165 H        70        0    0.0000
   1103 C         119.4034   95.8364  116.0798 C.3      71        0    0.0000
   1104 C         120.4846   95.0260  116.8090 C.3      71        0    0.0000
   1105 H         119.9041   96.5824  115.4495 H        71        0    0.0000
   1106 H         118.8151   95.2016  115.4069 H        71        0    0.0000
   1107 H         120.4187   93.9852  116.4671 H        71        0    0.0000
   1108 H         121.4899   95.3781  116.5494 H        71        0    0.0000
   1109 C         120.3196   95.0016  118.3681 C.3      72        0    0.0000
   1110 C         121.4495   94.2669  119.1037 C.3      72        0    0.0000
   1111 H         119.3787   94.4772  118.5789 H        72        0    0.0000
   1112 H         120.1989   96.0248  118.7430 H        72        0    0.0000
   1113 H         121.6450   93.3258  118.5739 H        72        0    0.0000
   1114 H         122.3827   94.8415  119.0766 H        72        0    0.0000
   1115 C         119.4089   90.5202  120.6617 C.3      73        0    0.0000
   1116 C         120.1800   91.6124  119.9160 C.3      73        0    0.0000
   1117 C         119.9238   92.9183  120.6796 C.3      73        0    0.0000
   1118 C         121.1045   93.8887  120.5858 C.3      73        0    0.0000
   1119 C         119.6055   92.4353  122.0986 C.3      73        0    0.0000
   1120 C         118.7188   91.2116  121.8449 C.3      73        0    0.0000
   1121 C         118.5569   90.2803  123.0494 C.3      73        0    0.0000
   1122 H         118.6761   90.0319  120.0104 H        73        0    0.0000
   1123 H         120.1082   89.7467  121.0012 H        73        0    0.0000
   1124 H         119.8504   91.6952  118.8747 H        73        0    0.0000
   1125 H         121.2470   91.3598  119.8998 H        73        0    0.0000
   1126 H         119.0235   93.3899  120.2595 H        73        0    0.0000
   1127 H         121.9886   93.4284  121.0430 H        73        0    0.0000
   1128 H         120.8930   94.8012  121.1554 H        73        0    0.0000
   1129 H         119.0877   93.2011  122.6848 H        73        0    0.0000
   1130 H         120.5217   92.1528  122.6322 H        73        0    0.0000
   1131 H         117.7302   91.5581  121.5101 H        73        0    0.0000
   1132 H         118.8559   89.2595  122.7838 H        73        0    0.0000
   1133 H         117.4986   90.2360  123.3331 H        73        0    0.0000
   1134 C         118.0194   89.1129  127.4250 C.3      74        0    0.0000
   1135 C         117.8093   89.6439  126.0138 C.3      74        0    0.0000
   1136 C         119.2412   89.8591  125.5130 C.3      74        0    0.0000
   1137 C         119.3783   90.7561  124.2790 C.3      74        0    0.0000
   1138 C         120.0415   90.3065  126.7519 C.3      74        0    0.0000
   1139 C         119.1378   90.0104  127.9648 C.3      74        0    0.0000
   1140 C         119.8568   89.4868  129.2118 C.3      74        0    0.0000
   1141 H         117.1087   89.1830  128.0279 H        74        0    0.0000
   1142 H         118.3196   88.0601  127.3833 H        74        0    0.0000
   1143 H         117.2570   88.9355  125.3885 H        74        0    0.0000
   1144 H         117.2408   90.5796  126.0514 H        74        0    0.0000
   1145 H         119.6305   88.8707  125.2255 H        74        0    0.0000
   1146 H         119.0647   91.7739  124.5396 H        74        0    0.0000
   1147 H         120.4356   90.8154  123.9947 H        74        0    0.0000
   1148 H         120.2927   91.3725  126.7343 H        74        0    0.0000
   1149 H         120.9932   89.7655  126.7879 H        74        0    0.0000
   1150 H         118.6706   90.9648  128.2511 H        74        0    0.0000
   1151 H         120.3718   88.5516  128.9619 H        74        0    0.0000
   1152 H         120.6318   90.2042  129.5065 H        74        0    0.0000
   1153 C         118.9207   89.2322  130.4312 C.3      75        0    0.0000
   1154 C         119.6619   88.8227  131.7120 C.3      75        0    0.0000
   1155 H         118.3946   90.1749  130.6290 H        75        0    0.0000
   1156 H         118.1542   88.4962  130.1613 H        75        0    0.0000
   1157 H         120.5095   88.1640  131.4890 H        75        0    0.0000
   1158 H         120.0804   89.7292  132.1678 H        75        0    0.0000
   1159 C         121.7152   88.2111  134.9478 C.3      76        0    0.0000
   1160 C         120.2690   88.6724  134.7739 C.3      76        0    0.0000
   1161 C         119.5516   87.5786  133.9640 C.3      76        0    0.0000
   1162 C         118.7439   88.1547  132.7935 C.3      76        0    0.0000
   1163 C         120.6673   86.6116  133.5388 C.3      76        0    0.0000
   1164 C         121.7186   86.7092  134.6516 C.3      76        0    0.0000
   1165 C         121.3885   85.8795  135.9057 C.3      76        0    0.0000
   1166 H         122.3432   88.7263  134.2097 H        76        0    0.0000
   1167 H         122.1102   88.4596  135.9379 H        76        0    0.0000
   1168 H         120.2369   89.6535  134.2875 H        76        0    0.0000
   1169 H         119.7860   88.7821  135.7520 H        76        0    0.0000
   1170 H         118.8690   87.0491  134.6436 H        76        0    0.0000
   1171 H         118.0122   88.8848  133.1584 H        76        0    0.0000
   1172 H         118.1749   87.3486  132.3148 H        76        0    0.0000
   1173 H         120.2934   85.5941  133.3889 H        76        0    0.0000
   1174 H         121.1154   86.9398  132.5919 H        76        0    0.0000
   1175 H         122.7029   86.4102  134.2691 H        76        0    0.0000
   1176 H         120.3141   85.6793  135.9783 H        76        0    0.0000
   1177 H         121.6613   86.4530  136.7999 H        76        0    0.0000
   1178 C         121.0064   81.7909  138.1492 C.3      77        0    0.0000
   1179 C         120.7035   83.1738  137.5672 C.3      77        0    0.0000
   1180 C         122.0621   83.8488  137.3064 C.3      77        0    0.0000
   1181 C         122.1704   84.5359  135.9395 C.3      77        0    0.0000
   1182 C         123.0869   82.7226  137.4762 C.3      77        0    0.0000
   1183 C         122.4850   81.8122  138.5519 C.3      77        0    0.0000
   1184 C         122.7169   82.3525  139.9758 C.3      77        0    0.0000
   1185 H         120.3288   81.5371  138.9699 H        77        0    0.0000
   1186 H         120.8581   81.0375  137.3650 H        77        0    0.0000
   1187 H         120.0967   83.0742  136.6604 H        77        0    0.0000
   1188 H         120.1232   83.7695  138.2814 H        77        0    0.0000
   1189 H         122.2362   84.5909  138.0986 H        77        0    0.0000
   1190 H         123.2247   84.7412  135.7189 H        77        0    0.0000
   1191 H         121.8033   83.8730  135.1476 H        77        0    0.0000
   1192 H         124.0759   83.1057  137.7479 H        77        0    0.0000
   1193 H         123.1951   82.1602  136.5397 H        77        0    0.0000
   1194 H         122.9177   80.8073  138.4677 H        77        0    0.0000
   1195 H         122.2935   81.6785  140.7287 H        77        0    0.0000
   1196 H         122.2055   83.3160  140.0872 H        77        0    0.0000
   1197 C         126.2488   82.2839  137.0794 C.3      78        0    0.0000
   1198 C         124.9098   82.4833  137.7728 C.3      78        0    0.0000
   1199 C         125.1720   81.9997  139.2047 C.3      78        0    0.0000
   1200 C         124.2292   82.5700  140.2719 C.3      78        0    0.0000
   1201 C         126.6757   82.2355  139.4558 C.3      78        0    0.0000
   1202 C         127.2532   82.7629  138.1296 C.3      78        0    0.0000
   1203 C         128.6778   82.2957  137.8210 C.3      78        0    0.0000
   1204 H         126.3994   81.2237  136.8422 H        78        0    0.0000
   1205 H         126.3177   82.8564  136.1494 H        78        0    0.0000
   1206 H         124.6340   83.5428  137.7386 H        78        0    0.0000
   1207 H         124.1103   81.9136  137.2889 H        78        0    0.0000
   1208 H         125.0206   80.9099  139.2085 H        78        0    0.0000
   1209 H         124.4670   82.1106  141.2388 H        78        0    0.0000
   1210 H         124.4184   83.6446  140.3797 H        78        0    0.0000
   1211 H         127.1430   81.2850  139.7420 H        78        0    0.0000
   1212 H         126.8697   82.9417  140.2699 H        78        0    0.0000
   1213 H         127.2255   83.8620  138.1563 H        78        0    0.0000
   1214 H         128.6611   81.2835  137.3998 H        78        0    0.0000
   1215 H         129.1151   82.9478  137.0554 H        78        0    0.0000
   1216 C         128.5742   84.4914  142.0173 C.3      79        0    0.0000
   1217 C         128.9043   84.3347  140.5395 C.3      79        0    0.0000
   1218 C         128.9106   82.8143  140.3501 C.3      79        0    0.0000
   1219 C         129.5961   82.3134  139.0752 C.3      79        0    0.0000
   1220 C         129.4642   82.2433  141.6703 C.3      79        0    0.0000
   1221 C         129.4370   83.4104  142.6766 C.3      79        0    0.0000
   1222 C         129.0432   83.0380  144.1093 C.3      79        0    0.0000
   1223 H         128.8166   85.4928  142.3864 H        79        0    0.0000
   1224 H         127.5042   84.3194  142.1777 H        79        0    0.0000
   1225 H         128.1633   84.8255  139.9008 H        79        0    0.0000
   1226 H         129.8829   84.7803  140.3296 H        79        0    0.0000
   1227 H         127.8590   82.4966  140.2849 H        79        0    0.0000
   1228 H         130.4672   82.9452  138.8651 H        79        0    0.0000
   1229 H         129.9765   81.2996  139.2474 H        79        0    0.0000
   1230 H         130.4882   81.8661  141.5749 H        79        0    0.0000
   1231 H         128.8504   81.3933  141.9874 H        79        0    0.0000
   1232 H         130.4621   83.8076  142.7275 H        79        0    0.0000
   1233 H         128.5605   83.9007  144.5836 H        79        0    0.0000
   1234 H         128.2959   82.2363  144.0786 H        79        0    0.0000
   1235 C         130.2347   82.5778  145.0018 C.3      80        0    0.0000
   1236 C         130.0456   82.8744  146.4964 C.3      80        0    0.0000
   1237 H         131.1203   83.1258  144.6553 H        80        0    0.0000
   1238 H         130.4367   81.5142  144.8287 H        80        0    0.0000
   1239 H         129.6566   83.8960  146.5941 H        80        0    0.0000
   1240 H         129.2968   82.2099  146.9433 H        80        0    0.0000
   1241 C         130.8645   80.9178  150.5524 C.3      81        0    0.0000
   1242 C         130.3941   81.3291  149.1548 C.3      81        0    0.0000
   1243 C         131.1092   82.6472  148.8302 C.3      81        0    0.0000
   1244 C         131.3717   82.8131  147.3308 C.3      81        0    0.0000
   1245 C         132.3718   82.5807  149.6959 C.3      81        0    0.0000
   1246 C         131.8442   82.0046  151.0141 C.3      81        0    0.0000
   1247 C         132.9256   81.4545  151.9482 C.3      81        0    0.0000
   1248 H         130.0227   80.8269  151.2473 H        81        0    0.0000
   1249 H         131.3499   79.9359  150.4999 H        81        0    0.0000
   1250 H         129.3064   81.4532  149.1190 H        81        0    0.0000
   1251 H         130.6552   80.5433  148.4358 H        81        0    0.0000
   1252 H         130.4809   83.4753  149.1893 H        81        0    0.0000
   1253 H         131.9705   81.9673  146.9724 H        81        0    0.0000
   1254 H         131.9613   83.7187  147.1459 H        81        0    0.0000
   1255 H         132.8259   83.5672  149.8334 H        81        0    0.0000
   1256 H         133.1206   81.9153  149.2482 H        81        0    0.0000
   1257 H         131.2697   82.7856  151.5333 H        81        0    0.0000
   1258 H         133.8349   81.2217  151.3818 H        81        0    0.0000
   1259 H         132.5781   80.5125  152.3892 H        81        0    0.0000
   1260 C         133.2708   82.4404  153.0979 C.3      82        0    0.0000
   1261 C         133.5522   81.7560  154.4432 C.3      82        0    0.0000
   1262 H         134.1780   82.9776  152.7929 H        82        0    0.0000
   1263 H         132.4780   83.1918  153.1908 H        82        0    0.0000
   1264 H         133.0612   80.7776  154.5034 H        82        0    0.0000
   1265 H         134.6317   81.5700  154.5114 H        82        0    0.0000
   1266 C         130.8388   80.7251  157.8783 C.3      83        0    0.0000
   1267 C         131.5488   80.7873  156.5237 C.3      83        0    0.0000
   1268 C         131.7578   82.2785  156.2045 C.3      83        0    0.0000
   1269 C         133.1622   82.6206  155.6918 C.3      83        0    0.0000
   1270 C         131.4230   83.0000  157.5139 C.3      83        0    0.0000
   1271 C         130.3280   82.1427  158.1576 C.3      83        0    0.0000
   1272 C         128.9374   82.4152  157.5534 C.3      83        0    0.0000
   1273 H         130.0545   79.9623  157.8925 H        83        0    0.0000
   1274 H         131.5705   80.4482  158.6482 H        83        0    0.0000
   1275 H         132.4883   80.2255  156.5668 H        83        0    0.0000
   1276 H         130.9296   80.3238  155.7468 H        83        0    0.0000
   1277 H         131.0154   82.5773  155.4508 H        83        0    0.0000
   1278 H         133.1969   83.6789  155.4068 H        83        0    0.0000
   1279 H         133.9044   82.4811  156.4862 H        83        0    0.0000
   1280 H         131.1078   84.0345  157.3432 H        83        0    0.0000
   1281 H         132.3016   83.0254  158.1715 H        83        0    0.0000
   1282 H         130.3001   82.3320  159.2383 H        83        0    0.0000
   1283 H         128.3137   81.5145  157.5737 H        83        0    0.0000
   1284 H         129.0478   82.7026  156.5011 H        83        0    0.0000
   1285 C         128.9696   86.7650  160.0161 C.3      84        0    0.0000
   1286 C         128.6988   86.0702  158.6794 C.3      84        0    0.0000
   1287 C         129.1823   84.6170  158.8329 C.3      84        0    0.0000
   1288 C         128.2010   83.5680  158.2955 C.3      84        0    0.0000
   1289 C         129.4424   84.4575  160.3343 C.3      84        0    0.0000
   1290 C         129.9140   85.8414  160.7932 C.3      84        0    0.0000
   1291 C         131.4008   86.0904  160.4762 C.3      84        0    0.0000
   1292 H         129.3582   87.7783  159.8772 H        84        0    0.0000
   1293 H         128.0234   86.8560  160.5649 H        84        0    0.0000
   1294 H         127.6345   86.1405  158.4293 H        84        0    0.0000
   1295 H         129.2542   86.5639  157.8735 H        84        0    0.0000
   1296 H         130.1428   84.5157  158.3075 H        84        0    0.0000
   1297 H         127.6350   83.1386  159.1307 H        84        0    0.0000
   1298 H         127.4713   84.0349  157.6240 H        84        0    0.0000
   1299 H         130.1726   83.6687  160.5424 H        84        0    0.0000
   1300 H         128.5134   84.1956  160.8572 H        84        0    0.0000
   1301 H         129.7480   85.9473  161.8728 H        84        0    0.0000
   1302 H         131.6060   87.1599  160.3557 H        84        0    0.0000
   1303 H         131.6559   85.6079  159.5252 H        84        0    0.0000
   1304 C         133.5116   87.3848  164.5052 C.3      85        0    0.0000
   1305 C         132.8229   87.4651  163.1438 C.3      85        0    0.0000
   1306 C         132.0670   86.1387  162.9531 C.3      85        0    0.0000
   1307 C         132.3318   85.5087  161.5793 C.3      85        0    0.0000
   1308 C         132.5062   85.2645  164.1378 C.3      85        0    0.0000
   1309 C         132.8122   86.2563  165.2673 C.3      85        0    0.0000
   1310 C         131.5665   86.7613  166.0180 C.3      85        0    0.0000
   1311 H         134.5659   87.1195  164.3544 H        85        0    0.0000
   1312 H         133.4919   88.3432  165.0335 H        85        0    0.0000
   1313 H         133.5583   87.6541  162.3541 H        85        0    0.0000
   1314 H         132.1115   88.2992  163.1275 H        85        0    0.0000
   1315 H         130.9920   86.3464  163.0504 H        85        0    0.0000
   1316 H         132.2095   84.4205  161.6293 H        85        0    0.0000
   1317 H         133.3724   85.6972  161.2891 H        85        0    0.0000
   1318 H         131.7442   84.5270  164.4084 H        85        0    0.0000
   1319 H         133.4218   84.7137  163.8860 H        85        0    0.0000
   1320 H         133.5100   85.8077  165.9858 H        85        0    0.0000
   1321 H         130.7375   86.0502  165.9357 H        85        0    0.0000
   1322 H         131.2234   87.6967  165.5594 H        85        0    0.0000
   1323 C         134.4949   88.5812  169.6339 C.3      86        0    0.0000
   1324 C         133.2765   88.8218  168.7393 C.3      86        0    0.0000
   1325 C         133.2472   87.6717  167.7168 C.3      86        0    0.0000
   1326 C         131.8627   87.0422  167.5183 C.3      86        0    0.0000
   1327 C         134.2753   86.6656  168.2440 C.3      86        0    0.0000
   1328 C         135.3478   87.5277  168.9185 C.3      86        0    0.0000
   1329 C         136.3363   88.1352  167.9053 C.3      86        0    0.0000
   1330 H         135.0308   89.5101  169.8508 H        86        0    0.0000
   1331 H         134.1530   88.1753  170.5946 H        86        0    0.0000
   1332 H         132.3678   88.8723  169.3492 H        86        0    0.0000
   1333 H         133.3699   89.7813  168.2173 H        86        0    0.0000
   1334 H         133.6100   88.0573  166.7533 H        86        0    0.0000
   1335 H         131.8131   86.0937  168.0663 H        86        0    0.0000
   1336 H         131.0838   87.6910  167.9352 H        86        0    0.0000
   1337 H         134.6778   86.0340  167.4454 H        86        0    0.0000
   1338 H         133.8152   86.0043  168.9896 H        86        0    0.0000
   1339 H         135.8996   86.9232  169.6497 H        86        0    0.0000
   1340 H         136.7010   89.1111  168.2445 H        86        0    0.0000
   1341 H         135.8229   88.3013  166.9507 H        86        0    0.0000
   1342 C         137.5486   87.1944  167.6458 C.3      87        0    0.0000
   1343 C         137.3225   86.1838  166.5123 C.3      87        0    0.0000
   1344 H         138.3936   87.8365  167.3660 H        87        0    0.0000
   1345 H         137.8322   86.6916  168.5778 H        87        0    0.0000
   1346 H         136.7992   86.6441  165.6659 H        87        0    0.0000
   1347 H         138.3043   85.8659  166.1387 H        87        0    0.0000
   1348 C         136.5657   84.8849  166.9583 C.3      88        0    0.0000
   1349 C         137.2485   83.5824  166.5171 C.3      88        0    0.0000
   1350 H         136.5336   84.8979  168.0553 H        88        0    0.0000
   1351 H         135.5257   84.9266  166.6138 H        88        0    0.0000
   1352 H         136.8974   83.2629  165.5289 H        88        0    0.0000
   1353 H         138.3241   83.7779  166.4198 H        88        0    0.0000
   1354 C         136.4484   79.0975  165.7797 C.3      89        0    0.0000
   1355 C         136.2681   80.6066  165.8668 C.3      89        0    0.0000
   1356 C         137.2930   81.0123  166.9311 C.3      89        0    0.0000
   1357 C         137.0934   82.4038  167.5395 C.3      89        0    0.0000
   1358 C         137.3175   79.8446  167.9368 C.3      89        0    0.0000
   1359 C         136.5736   78.6829  167.2494 C.3      89        0    0.0000
   1360 C         137.1595   77.2885  167.4914 C.3      89        0    0.0000
   1361 H         135.6005   78.6124  165.2863 H        89        0    0.0000
   1362 H         137.3533   78.8655  165.2074 H        89        0    0.0000
   1363 H         136.4562   81.0970  164.9067 H        89        0    0.0000
   1364 H         135.2422   80.8397  166.1726 H        89        0    0.0000
   1365 H         138.2767   81.0252  166.4380 H        89        0    0.0000
   1366 H         136.0953   82.4576  167.9902 H        89        0    0.0000
   1367 H         137.8145   82.5460  168.3531 H        89        0    0.0000
   1368 H         136.8223   80.0874  168.8831 H        89        0    0.0000
   1369 H         138.3552   79.5977  168.1857 H        89        0    0.0000
   1370 H         135.5548   78.6702  167.6651 H        89        0    0.0000
   1371 H         136.3925   76.5354  167.2752 H        89        0    0.0000
   1372 H         137.9787   77.1160  166.7833 H        89        0    0.0000
   1373 C         137.6918   77.0598  168.9379 C.3      90        0    0.0000
   1374 C         137.7955   75.5811  169.3380 C.3      90        0    0.0000
   1375 H         138.6988   77.4946  168.9774 H        90        0    0.0000
   1376 H         137.0788   77.6238  169.6507 H        90        0    0.0000
   1377 H         136.8938   75.0265  169.0529 H        90        0    0.0000
   1378 H         138.6281   75.1348  168.7793 H        90        0    0.0000
   1379 C         140.3722   72.3265  171.0065 C.3      91        0    0.0000
   1380 C         139.6037   73.3532  170.1886 C.3      91        0    0.0000
   1381 C         138.6148   73.9488  171.1989 C.3      91        0    0.0000
   1382 C         138.0974   75.3524  170.8596 C.3      91        0    0.0000
   1383 C         139.2919   73.8083  172.5778 C.3      91        0    0.0000
   1384 C         140.6109   73.0531  172.3317 C.3      91        0    0.0000
   1385 C         141.0170   72.0921  173.4517 C.3      91        0    0.0000
   1386 H         139.7642   71.4255  171.1529 H        91        0    0.0000
   1387 H         141.3080   72.0333  170.5208 H        91        0    0.0000
   1388 H         140.2984   74.1047  169.7983 H        91        0    0.0000
   1389 H         139.0916   72.8960  169.3361 H        91        0    0.0000
   1390 H         137.7342   73.2894  171.2133 H        91        0    0.0000
   1391 H         137.1810   75.5415  171.4314 H        91        0    0.0000
   1392 H         138.8329   76.0950  171.1908 H        91        0    0.0000
   1393 H         138.6293   73.2427  173.2447 H        91        0    0.0000
   1394 H         139.4826   74.7713  173.0628 H        91        0    0.0000
   1395 H         141.4078   73.7954  172.1787 H        91        0    0.0000
   1396 H         141.5735   72.6299  174.2283 H        91        0    0.0000
   1397 H         140.1152   71.6923  173.9307 H        91        0    0.0000
   1398 C         141.8764   70.9039  172.9357 C.3      92        0    0.0000
   1399 C         142.4608   70.0258  174.0515 C.3      92        0    0.0000
   1400 H         142.7117   71.3385  172.3718 H        92        0    0.0000
   1401 H         141.2935   70.3084  172.2234 H        92        0    0.0000
   1402 H         143.3217   70.5521  174.4832 H        92        0    0.0000
   1403 H         141.7403   69.8832  174.8655 H        92        0    0.0000
   1404 C         142.9830   68.6322  173.5579 C.3      93        0    0.0000
   1405 C         143.4757   67.7152  174.6865 C.3      93        0    0.0000
   1406 H         143.8285   68.8303  172.8866 H        93        0    0.0000
   1407 H         142.2113   68.1414  172.9534 H        93        0    0.0000
   1408 H         144.5599   67.8525  174.7879 H        93        0    0.0000
   1409 H         143.0330   67.9949  175.6497 H        93        0    0.0000
   1410 C         145.6781   65.7552  177.1237 C.3      94        0    0.0000
   1411 C         144.2248   66.0654  176.7680 C.3      94        0    0.0000
   1412 C         143.9162   65.3016  175.4686 C.3      94        0    0.0000
   1413 C         143.2359   66.1891  174.4180 C.3      94        0    0.0000
   1414 C         145.2694   64.7273  175.0217 C.3      94        0    0.0000
   1415 C         146.0524   64.5059  176.3221 C.3      94        0    0.0000
   1416 C         145.6782   63.2140  177.0713 C.3      94        0    0.0000
   1417 H         146.3089   66.5936  176.8014 H        94        0    0.0000
   1418 H         145.8219   65.6386  178.2024 H        94        0    0.0000
   1419 H         144.0774   67.1467  176.6724 H        94        0    0.0000
   1420 H         143.5573   65.7187  177.5657 H        94        0    0.0000
   1421 H         143.2468   64.4666  175.7194 H        94        0    0.0000
   1422 H         142.1594   65.9847  174.3860 H        94        0    0.0000
   1423 H         143.6339   65.9453  173.4256 H        94        0    0.0000
   1424 H         145.1524   63.8143  174.4298 H        94        0    0.0000
   1425 H         145.8055   65.4559  174.3996 H        94        0    0.0000
   1426 H         147.1309   64.5065  176.1189 H        94        0    0.0000
   1427 H         144.6027   63.0163  177.0101 H        94        0    0.0000
   1428 H         145.9147   63.3327  178.1357 H        94        0    0.0000
   1429 C         149.2652   62.8653  175.0726 C.3      95        0    0.0000
   1430 C         147.8328   63.3865  174.9281 C.3      95        0    0.0000
   1431 C         146.9090   62.1727  175.0770 C.3      95        0    0.0000
   1432 C         146.4637   61.9820  176.5391 C.3      95        0    0.0000
   1433 C         147.7796   61.0368  174.5248 C.3      95        0    0.0000
   1434 C         149.1787   61.3299  175.0724 C.3      95        0    0.0000
   1435 C         150.2790   60.6321  174.2648 C.3      95        0    0.0000
   1436 H         149.8832   63.2498  174.2534 H        95        0    0.0000
   1437 H         149.7113   63.2189  176.0092 H        95        0    0.0000
   1438 H         147.7115   63.8129  173.9242 H        95        0    0.0000
   1439 H         147.6145   64.1857  175.6438 H        95        0    0.0000
   1440 H         146.0191   62.3033  174.4480 H        95        0    0.0000
   1441 H         147.3496   61.8403  177.1700 H        95        0    0.0000
   1442 H         145.8515   61.0811  176.6537 H        95        0    0.0000
   1443 H         147.7833   61.0823  173.4278 H        95        0    0.0000
   1444 H         147.4310   60.0397  174.8099 H        95        0    0.0000
   1445 H         149.2238   60.9806  176.1135 H        95        0    0.0000
   1446 H         151.2643   60.8568  174.6893 H        95        0    0.0000
   1447 H         150.2788   61.0193  173.2390 H        95        0    0.0000
   1448 C         147.7937   57.9496  177.0200 C.3      96        0    0.0000
   1449 C         148.3204   59.0620  176.1263 C.3      96        0    0.0000
   1450 C         149.6104   58.4722  175.5423 C.3      96        0    0.0000
   1451 C         150.0724   59.0909  174.2169 C.3      96        0    0.0000
   1452 C         149.3983   56.9444  175.5212 C.3      96        0    0.0000
   1453 C         148.0288   56.6935  176.1785 C.3      96        0    0.0000
   1454 C         147.9448   55.4144  177.0149 C.3      96        0    0.0000
   1455 H         148.3647   57.9118  177.9557 H        96        0    0.0000
   1456 H         146.7372   58.0895  177.2686 H        96        0    0.0000
   1457 H         147.5815   59.2888  175.3501 H        96        0    0.0000
   1458 H         148.5092   59.9823  176.6878 H        96        0    0.0000
   1459 H         150.4114   58.6675  176.2708 H        96        0    0.0000
   1460 H         151.0150   58.6198  173.9138 H        96        0    0.0000
   1461 H         149.3387   58.8556  173.4367 H        96        0    0.0000
   1462 H         150.2050   56.4643  176.0892 H        96        0    0.0000
   1463 H         149.4261   56.5207  174.5117 H        96        0    0.0000
   1464 H         147.2679   56.6634  175.3850 H        96        0    0.0000
   1465 H         147.7103   55.6590  178.0577 H        96        0    0.0000
   1466 H         147.1208   54.7929  176.6447 H        96        0    0.0000
   1467 C         150.2746   52.0417  179.5857 C.3      97        0    0.0000
   1468 C         149.2784   52.5267  178.5437 C.3      97        0    0.0000
   1469 C         149.6811   53.9892  178.3161 C.3      97        0    0.0000
   1470 C         149.2575   54.5831  176.9667 C.3      97        0    0.0000
   1471 C         151.1908   54.0591  178.6253 C.3      97        0    0.0000
   1472 C         151.5936   52.6543  179.1101 C.3      97        0    0.0000
   1473 C         152.6652   52.6370  180.2029 C.3      97        0    0.0000
   1474 H         149.9989   52.4174  180.5786 H        97        0    0.0000
   1475 H         150.3189   50.9493  179.6328 H        97        0    0.0000
   1476 H         149.3776   51.9245  177.6342 H        97        0    0.0000
   1477 H         148.2451   52.4369  178.8935 H        97        0    0.0000
   1478 H         149.1747   54.5859  179.0895 H        97        0    0.0000
   1479 H         150.0645   55.2231  176.5907 H        97        0    0.0000
   1480 H         149.1364   53.7709  176.2401 H        97        0    0.0000
   1481 H         151.3609   54.8119  179.4051 H        97        0    0.0000
   1482 H         151.7930   54.3570  177.7606 H        97        0    0.0000
   1483 H         151.9466   52.0797  178.2414 H        97        0    0.0000
   1484 H         152.3307   52.0280  181.0511 H        97        0    0.0000
   1485 H         153.5729   52.1614  179.8128 H        97        0    0.0000
   1486 C         152.1304   57.4061  179.2054 C.3      98        0    0.0000
   1487 C         152.7712   56.5550  180.2910 C.3      98        0    0.0000
   1488 C         152.2237   55.1566  179.9981 C.3      98        0    0.0000
   1489 C         153.0260   54.0626  180.7069 C.3      98        0    0.0000
   1490 C         152.2386   55.0724  178.4608 C.3      98        0    0.0000
   1491 C         152.2379   56.5286  177.9518 C.3      98        0    0.0000
   1492 C         151.2213   56.8387  176.8458 C.3      98        0    0.0000
   1493 H         152.6454   58.3636  179.0796 H        98        0    0.0000
   1494 H         151.0896   57.6183  179.4731 H        98        0    0.0000
   1495 H         153.8637   56.5800  180.1978 H        98        0    0.0000
   1496 H         152.5048   56.9020  181.2941 H        98        0    0.0000
   1497 H         151.1771   55.1194  180.3336 H        98        0    0.0000
   1498 H         154.1005   54.2328  180.5702 H        98        0    0.0000
   1499 H         152.8341   54.1137  181.7853 H        98        0    0.0000
   1500 H         153.1439   54.5686  178.0997 H        98        0    0.0000
   1501 H         151.3856   54.4899  178.0973 H        98        0    0.0000
   1502 H         153.2325   56.7095  177.5175 H        98        0    0.0000
   1503 H         151.4166   56.1864  175.9865 H        98        0    0.0000
   1504 H         151.3747   57.8680  176.5000 H        98        0    0.0000
   1505 C         148.2560   53.1865  177.2364 C.3      99        0    0.0000
   1506 C         148.0728   54.6919  177.1192 C.3      99        0    0.0000
   1507 C         149.3603   55.2584  177.7312 C.3      99        0    0.0000
   1508 C         149.7349   56.6742  177.2748 C.3      99        0    0.0000
   1509 C         150.4404   54.1813  177.5013 C.3      99        0    0.0000
   1510 C         149.7218   52.9881  176.8451 C.3      99        0    0.0000
   1511 C         150.2500   51.6138  177.2637 C.3      99        0    0.0000
   1512 H         148.0740   52.8610  178.2679 H        99        0    0.0000
   1513 H         147.5743   52.6385  176.5787 H        99        0    0.0000
   1514 H         147.9612   54.9662  176.0647 H        99        0    0.0000
   1515 H         147.1809   55.0376  177.6511 H        99        0    0.0000
   1516 H         149.2010   55.3157  178.8183 H        99        0    0.0000
   1517 H         149.0931   56.9577  176.4321 H        99        0    0.0000
   1518 H         149.5195   57.3805  178.0852 H        99        0    0.0000
   1519 H         150.8751   53.8997  178.4684 H        99        0    0.0000
   1520 H         151.2664   54.5288  176.8718 H        99        0    0.0000
   1521 H         149.8045   53.0958  175.7538 H        99        0    0.0000
   1522 H         150.2034   51.5067  178.3539 H        99        0    0.0000
   1523 H         149.6040   50.8340  176.8431 H        99        0    0.0000
   1524 H         151.2726   51.4391  176.9291 H        99        0    0.0000
   1525 H         190.0753  237.7511  174.4298 H         0        0    0.0000
@<TRIPOS>BOND
     1     1     2      1
     2     1     6      1
     3     1     8      1
     4     1     9      1
     5     2     3      1
     6     2    10      1
     7     2    11      1
     8     3     4      1
     9     3     5      1
    10     3    12      1
    11     4    13      1
    12     4    14      1
    13     4  1525      H
    14     5     6      1
    15     5    15      1
    16     5    16      1
    17     6     7      1
    18     6    17      1
    19     7    18      1
    20     7    19      1
    21     7    23      1
    22    20    21      1
    23    20    25      1
    24    20    27      1
    25    20    28      1
    26    21    22      1
    27    21    29      1
    28    21    30      1
    29    22    23      1
    30    22    24      1
    31    22    31      1
    32    23    32      1
    33    23    33      1
    34    24    25      1
    35    24    34      1
    36    24    35      1
    37    25    26      1
    38    25    36      1
    39    26    37      1
    40    26    38      1
    41    26    39      1
    42    39    40      1
    43    39    41      1
    44    39    42      1
    45    40    43      1
    46    40    44      1
    47    40    48      1
    48    45    46      1
    49    45    50      1
    50    45    52      1
    51    45    53      1
    52    46    47      1
    53    46    54      1
    54    46    55      1
    55    47    48      1
    56    47    49      1
    57    47    56      1
    58    48    57      1
    59    48    58      1
    60    49    50      1
    61    49    59      1
    62    49    60      1
    63    50    51      1
    64    50    61      1
    65    51    62      1
    66    51    63      1
    67    51    64      1
    68    64    65      1
    69    64    66      1
    70    64    67      1
    71    65    68      1
    72    65    69      1
    73    65    73      1
    74    70    71      1
    75    70    75      1
    76    70    77      1
    77    70    78      1
    78    71    72      1
    79    71    79      1
    80    71    80      1
    81    72    73      1
    82    72    74      1
    83    72    81      1
    84    73    82      1
    85    73    83      1
    86    74    75      1
    87    74    84      1
    88    74    85      1
    89    75    76      1
    90    75    86      1
    91    76    87      1
    92    76    88      1
    93    76    92      1
    94    89    90      1
    95    89    94      1
    96    89    96      1
    97    89    97      1
    98    90    91      1
    99    90    98      1
   100    90    99      1
   101    91    92      1
   102    91    93      1
   103    91   100      1
   104    92   101      1
   105    92   102      1
   106    93    94      1
   107    93   103      1
   108    93   104      1
   109    94    95      1
   110    94   105      1
   111    95   106      1
   112    95   107      1
   113    95   108      1
   114   108   109      1
   115   108   110      1
   116   108   111      1
   117   109   112      1
   118   109   113      1
   119   109   114      1
   120   114   115      1
   121   114   116      1
   122   114   117      1
   123   115   118      1
   124   115   119      1
   125   115   120      1
   126   120   121      1
   127   120   122      1
   128   120   123      1
   129   121   124      1
   130   121   125      1
   131   121   126      1
   132   126   127      1
   133   126   128      1
   134   126   129      1
   135   127   130      1
   136   127   131      1
   137   127   135      1
   138   132   133      1
   139   132   137      1
   140   132   139      1
   141   132   140      1
   142   133   134      1
   143   133   141      1
   144   133   142      1
   145   134   135      1
   146   134   136      1
   147   134   143      1
   148   135   144      1
   149   135   145      1
   150   136   137      1
   151   136   146      1
   152   136   147      1
   153   137   138      1
   154   137   148      1
   155   138   149      1
   156   138   150      1
   157   138   154      1
   158   151   152      1
   159   151   156      1
   160   151   158      1
   161   151   159      1
   162   152   153      1
   163   152   160      1
   164   152   161      1
   165   153   154      1
   166   153   155      1
   167   153   162      1
   168   154   163      1
   169   154   164      1
   170   155   156      1
   171   155   165      1
   172   155   166      1
   173   156   157      1
   174   156   167      1
   175   157   168      1
   176   157   169      1
   177   157   170      1
   178   170   171      1
   179   170   172      1
   180   170   173      1
   181   171   174      1
   182   171   175      1
   183   171   179      1
   184   176   177      1
   185   176   181      1
   186   176   183      1
   187   176   184      1
   188   177   178      1
   189   177   185      1
   190   177   186      1
   191   178   179      1
   192   178   180      1
   193   178   187      1
   194   179   188      1
   195   179   189      1
   196   180   181      1
   197   180   190      1
   198   180   191      1
   199   181   182      1
   200   181   192      1
   201   182   193      1
   202   182   194      1
   203   182   195      1
   204   195   196      1
   205   195   197      1
   206   195   198      1
   207   196   199      1
   208   196   200      1
   209   196   204      1
   210   201   202      1
   211   201   206      1
   212   201   208      1
   213   201   209      1
   214   202   203      1
   215   202   210      1
   216   202   211      1
   217   203   204      1
   218   203   205      1
   219   203   212      1
   220   204   213      1
   221   204   214      1
   222   205   206      1
   223   205   215      1
   224   205   216      1
   225   206   207      1
   226   206   217      1
   227   207   218      1
   228   207   219      1
   229   207   223      1
   230   220   221      1
   231   220   225      1
   232   220   227      1
   233   220   228      1
   234   221   222      1
   235   221   229      1
   236   221   230      1
   237   222   223      1
   238   222   224      1
   239   222   231      1
   240   223   232      1
   241   223   233      1
   242   224   225      1
   243   224   234      1
   244   224   235      1
   245   225   226      1
   246   225   236      1
   247   226   237      1
   248   226   238      1
   249   226   242      1
   250   239   240      1
   251   239   244      1
   252   239   246      1
   253   239   247      1
   254   240   241      1
   255   240   248      1
   256   240   249      1
   257   241   242      1
   258   241   243      1
   259   241   250      1
   260   242   251      1
   261   242   252      1
   262   243   244      1
   263   243   253      1
   264   243   254      1
   265   244   245      1
   266   244   255      1
   267   245   256      1
   268   245   257      1
   269   245   261      1
   270   258   259      1
   271   258   263      1
   272   258   265      1
   273   258   266      1
   274   259   260      1
   275   259   267      1
   276   259   268      1
   277   260   261      1
   278   260   262      1
   279   260   269      1
   280   261   270      1
   281   261   271      1
   282   262   263      1
   283   262   272      1
   284   262   273      1
   285   263   264      1
   286   263   274      1
   287   264   275      1
   288   264   276      1
   289   264   277      1
   290   277   278      1
   291   277   279      1
   292   277   280      1
   293   278   281      1
   294   278   282      1
   295   278   286      1
   296   283   284      1
   297   283   288      1
   298   283   290      1
   299   283   291      1
   300   284   285      1
   301   284   292      1
   302   284   293      1
   303   285   286      1
   304   285   287      1
   305   285   294      1
   306   286   295      1
   307   286   296      1
   308   287   288      1
   309   287   297      1
   310   287   298      1
   311   288   289      1
   312   288   299      1
   313   289   300      1
   314   289   301      1
   315   289   305      1
   316   302   303      1
   317   302   307      1
   318   302   309      1
   319   302   310      1
   320   303   304      1
   321   303   311      1
   322   303   312      1
   323   304   305      1
   324   304   306      1
   325   304   313      1
   326   305   314      1
   327   305   315      1
   328   306   307      1
   329   306   316      1
   330   306   317      1
   331   307   308      1
   332   307   318      1
   333   308   319      1
   334   308   320      1
   335   308   324      1
   336   321   322      1
   337   321   326      1
   338   321   328      1
   339   321   329      1
   340   322   323      1
   341   322   330      1
   342   322   331      1
   343   323   324      1
   344   323   325      1
   345   323   332      1
   346   324   333      1
   347   324   334      1
   348   325   326      1
   349   325   335      1
   350   325   336      1
   351   326   327      1
   352   326   337      1
   353   327   338      1
   354   327   339      1
   355   327   343      1
   356   340   341      1
   357   340   345      1
   358   340   347      1
   359   340   348      1
   360   341   342      1
   361   341   349      1
   362   341   350      1
   363   342   343      1
   364   342   344      1
   365   342   351      1
   366   343   352      1
   367   343   353      1
   368   344   345      1
   369   344   354      1
   370   344   355      1
   371   345   346      1
   372   345   356      1
   373   346   357      1
   374   346   358      1
   375   346   362      1
   376   359   360      1
   377   359   364      1
   378   359   366      1
   379   359   367      1
   380   360   361      1
   381   360   368      1
   382   360   369      1
   383   361   362      1
   384   361   363      1
   385   361   370      1
   386   362   371      1
   387   362   372      1
   388   363   364      1
   389   363   373      1
   390   363   374      1
   391   364   365      1
   392   364   375      1
   393   365   376      1
   394   365   377      1
   395   365   381      1
   396   378   379      1
   397   378   383      1
   398   378   385      1
   399   378   386      1
   400   379   380      1
   401   379   387      1
   402   379   388      1
   403   380   381      1
   404   380   382      1
   405   380   389      1
   406   381   390      1
   407   381   391      1
   408   382   383      1
   409   382   392      1
   410   382   393      1
   411   383   384      1
   412   383   394      1
   413   384   395      1
   414   384   396      1
   415   384   397      1
   416   397   398      1
   417   397   399      1
   418   397   400      1
   419   398   401      1
   420   398   402      1
   421   398   406      1
   422   403   404      1
   423   403   408      1
   424   403   410      1
   425   403   411      1
   426   404   405      1
   427   404   412      1
   428   404   413      1
   429   405   406      1
   430   405   407      1
   431   405   414      1
   432   406   415      1
   433   406   416      1
   434   407   408      1
   435   407   417      1
   436   407   418      1
   437   408   409      1
   438   408   419      1
   439   409   420      1
   440   409   421      1
   441   409   425      1
   442   422   423      1
   443   422   427      1
   444   422   429      1
   445   422   430      1
   446   423   424      1
   447   423   431      1
   448   423   432      1
   449   424   425      1
   450   424   426      1
   451   424   433      1
   452   425   434      1
   453   425   435      1
   454   426   427      1
   455   426   436      1
   456   426   437      1
   457   427   428      1
   458   427   438      1
   459   428   439      1
   460   428   440      1
   461   428   444      1
   462   441   442      1
   463   441   446      1
   464   441   448      1
   465   441   449      1
   466   442   443      1
   467   442   450      1
   468   442   451      1
   469   443   444      1
   470   443   445      1
   471   443   452      1
   472   444   453      1
   473   444   454      1
   474   445   446      1
   475   445   455      1
   476   445   456      1
   477   446   447      1
   478   446   457      1
   479   447   458      1
   480   447   459      1
   481   447   463      1
   482   460   461      1
   483   460   465      1
   484   460   467      1
   485   460   468      1
   486   461   462      1
   487   461   469      1
   488   461   470      1
   489   462   463      1
   490   462   464      1
   491   462   471      1
   492   463   472      1
   493   463   473      1
   494   464   465      1
   495   464   474      1
   496   464   475      1
   497   465   466      1
   498   465   476      1
   499   466   477      1
   500   466   478      1
   501   466   479      1
   502   479   480      1
   503   479   481      1
   504   479   482      1
   505   480   483      1
   506   480   484      1
   507   480   488      1
   508   485   486      1
   509   485   490      1
   510   485   492      1
   511   485   493      1
   512   486   487      1
   513   486   494      1
   514   486   495      1
   515   487   488      1
   516   487   489      1
   517   487   496      1
   518   488   497      1
   519   488   498      1
   520   489   490      1
   521   489   499      1
   522   489   500      1
   523   490   491      1
   524   490   501      1
   525   491   502      1
   526   491   503      1
   527   491   507      1
   528   504   505      1
   529   504   509      1
   530   504   511      1
   531   504   512      1
   532   505   506      1
   533   505   513      1
   534   505   514      1
   535   506   507      1
   536   506   508      1
   537   506   515      1
   538   507   516      1
   539   507   517      1
   540   508   509      1
   541   508   518      1
   542   508   519      1
   543   509   510      1
   544   509   520      1
   545   510   521      1
   546   510   522      1
   547   510   526      1
   548   523   524      1
   549   523   528      1
   550   523   530      1
   551   523   531      1
   552   524   525      1
   553   524   532      1
   554   524   533      1
   555   525   526      1
   556   525   527      1
   557   525   534      1
   558   526   535      1
   559   526   536      1
   560   527   528      1
   561   527   537      1
   562   527   538      1
   563   528   529      1
   564   528   539      1
   565   529   540      1
   566   529   541      1
   567   529   545      1
   568   542   543      1
   569   542   547      1
   570   542   549      1
   571   542   550      1
   572   543   544      1
   573   543   551      1
   574   543   552      1
   575   544   545      1
   576   544   546      1
   577   544   553      1
   578   545   554      1
   579   545   555      1
   580   546   547      1
   581   546   556      1
   582   546   557      1
   583   547   548      1
   584   547   558      1
   585   548   559      1
   586   548   560      1
   587   548   564      1
   588   561   562      1
   589   561   566      1
   590   561   568      1
   591   561   569      1
   592   562   563      1
   593   562   570      1
   594   562   571      1
   595   563   564      1
   596   563   565      1
   597   563   572      1
   598   564   573      1
   599   564   574      1
   600   565   566      1
   601   565   575      1
   602   565   576      1
   603   566   567      1
   604   566   577      1
   605   567   578      1
   606   567   579      1
   607   567   583      1
   608   580   581      1
   609   580   585      1
   610   580   587      1
   611   580   588      1
   612   581   582      1
   613   581   589      1
   614   581   590      1
   615   582   583      1
   616   582   584      1
   617   582   591      1
   618   583   592      1
   619   583   593      1
   620   584   585      1
   621   584   594      1
   622   584   595      1
   623   585   586      1
   624   585   596      1
   625   586   597      1
   626   586   598      1
   627   586   602      1
   628   599   600      1
   629   599   604      1
   630   599   606      1
   631   599   607      1
   632   600   601      1
   633   600   608      1
   634   600   609      1
   635   601   602      1
   636   601   603      1
   637   601   610      1
   638   602   611      1
   639   602   612      1
   640   603   604      1
   641   603   613      1
   642   603   614      1
   643   604   605      1
   644   604   615      1
   645   605   616      1
   646   605   617      1
   647   605   621      1
   648   618   619      1
   649   618   623      1
   650   618   625      1
   651   618   626      1
   652   619   620      1
   653   619   627      1
   654   619   628      1
   655   620   621      1
   656   620   622      1
   657   620   629      1
   658   621   630      1
   659   621   631      1
   660   622   623      1
   661   622   632      1
   662   622   633      1
   663   623   624      1
   664   623   634      1
   665   624   635      1
   666   624   636      1
   667   624   640      1
   668   637   638      1
   669   637   642      1
   670   637   644      1
   671   637   645      1
   672   638   639      1
   673   638   646      1
   674   638   647      1
   675   639   640      1
   676   639   641      1
   677   639   648      1
   678   640   649      1
   679   640   650      1
   680   641   642      1
   681   641   651      1
   682   641   652      1
   683   642   643      1
   684   642   653      1
   685   643   654      1
   686   643   655      1
   687   643   659      1
   688   656   657      1
   689   656   661      1
   690   656   663      1
   691   656   664      1
   692   657   658      1
   693   657   665      1
   694   657   666      1
   695   658   659      1
   696   658   660      1
   697   658   667      1
   698   659   668      1
   699   659   669      1
   700   660   661      1
   701   660   670      1
   702   660   671      1
   703   661   662      1
   704   661   672      1
   705   662   673      1
   706   662   674      1
   707   662   675      1
   708   675   676      1
   709   675   677      1
   710   675   678      1
   711   676   679      1
   712   676   680      1
   713   676   684      1
   714   681   682      1
   715   681   686      1
   716   681   688      1
   717   681   689      1
   718   682   683      1
   719   682   690      1
   720   682   691      1
   721   683   684      1
   722   683   685      1
   723   683   692      1
   724   684   693      1
   725   684   694      1
   726   685   686      1
   727   685   695      1
   728   685   696      1
   729   686   687      1
   730   686   697      1
   731   687   698      1
   732   687   699      1
   733   687   703      1
   734   700   701      1
   735   700   705      1
   736   700   707      1
   737   700   708      1
   738   701   702      1
   739   701   709      1
   740   701   710      1
   741   702   703      1
   742   702   704      1
   743   702   711      1
   744   703   712      1
   745   703   713      1
   746   704   705      1
   747   704   714      1
   748   704   715      1
   749   705   706      1
   750   705   716      1
   751   706   717      1
   752   706   718      1
   753   706   722      1
   754   719   720      1
   755   719   724      1
   756   719   726      1
   757   719   727      1
   758   720   721      1
   759   720   728      1
   760   720   729      1
   761   721   722      1
   762   721   723      1
   763   721   730      1
   764   722   731      1
   765   722   732      1
   766   723   724      1
   767   723   733      1
   768   723   734      1
   769   724   725      1
   770   724   735      1
   771   725   736      1
   772   725   737      1
   773   725   741      1
   774   738   739      1
   775   738   743      1
   776   738   745      1
   777   738   746      1
   778   739   740      1
   779   739   747      1
   780   739   748      1
   781   740   741      1
   782   740   742      1
   783   740   749      1
   784   741   750      1
   785   741   751      1
   786   742   743      1
   787   742   752      1
   788   742   753      1
   789   743   744      1
   790   743   754      1
   791   744   755      1
   792   744   756      1
   793   744   760      1
   794   757   758      1
   795   757   762      1
   796   757   764      1
   797   757   765      1
   798   758   759      1
   799   758   766      1
   800   758   767      1
   801   759   760      1
   802   759   761      1
   803   759   768      1
   804   760   769      1
   805   760   770      1
   806   761   762      1
   807   761   771      1
   808   761   772      1
   809   762   763      1
   810   762   773      1
   811   763   774      1
   812   763   775      1
   813   763   779      1
   814   776   777      1
   815   776   781      1
   816   776   783      1
   817   776   784      1
   818   777   778      1
   819   777   785      1
   820   777   786      1
   821   778   779      1
   822   778   780      1
   823   778   787      1
   824   779   788      1
   825   779   789      1
   826   780   781      1
   827   780   790      1
   828   780   791      1
   829   781   782      1
   830   781   792      1
   831   782   793      1
   832   782   794      1
   833   782   795      1
   834   795   796      1
   835   795   797      1
   836   795   798      1
   837   796   799      1
   838   796   800      1
   839   796   804      1
   840   801   802      1
   841   801   806      1
   842   801   808      1
   843   801   809      1
   844   802   803      1
   845   802   810      1
   846   802   811      1
   847   803   804      1
   848   803   805      1
   849   803   812      1
   850   804   813      1
   851   804   814      1
   852   805   806      1
   853   805   815      1
   854   805   816      1
   855   806   807      1
   856   806   817      1
   857   807   818      1
   858   807   819      1
   859   807   823      1
   860   820   821      1
   861   820   825      1
   862   820   827      1
   863   820   828      1
   864   821   822      1
   865   821   829      1
   866   821   830      1
   867   822   823      1
   868   822   824      1
   869   822   831      1
   870   823   832      1
   871   823   833      1
   872   824   825      1
   873   824   834      1
   874   824   835      1
   875   825   826      1
   876   825   836      1
   877   826   837      1
   878   826   838      1
   879   826   839      1
   880   839   840      1
   881   839   841      1
   882   839   842      1
   883   840   843      1
   884   840   844      1
   885   840   848      1
   886   845   846      1
   887   845   850      1
   888   845   852      1
   889   845   853      1
   890   846   847      1
   891   846   854      1
   892   846   855      1
   893   847   848      1
   894   847   849      1
   895   847   856      1
   896   848   857      1
   897   848   858      1
   898   849   850      1
   899   849   859      1
   900   849   860      1
   901   850   851      1
   902   850   861      1
   903   851   862      1
   904   851   863      1
   905   851   867      1
   906   864   865      1
   907   864   869      1
   908   864   871      1
   909   864   872      1
   910   865   866      1
   911   865   873      1
   912   865   874      1
   913   866   867      1
   914   866   868      1
   915   866   875      1
   916   867   876      1
   917   867   877      1
   918   868   869      1
   919   868   878      1
   920   868   879      1
   921   869   870      1
   922   869   880      1
   923   870   881      1
   924   870   882      1
   925   870   883      1
   926   883   884      1
   927   883   885      1
   928   883   886      1
   929   884   887      1
   930   884   888      1
   931   884   892      1
   932   889   890      1
   933   889   894      1
   934   889   896      1
   935   889   897      1
   936   890   891      1
   937   890   898      1
   938   890   899      1
   939   891   892      1
   940   891   893      1
   941   891   900      1
   942   892   901      1
   943   892   902      1
   944   893   894      1
   945   893   903      1
   946   893   904      1
   947   894   895      1
   948   894   905      1
   949   895   906      1
   950   895   907      1
   951   895   908      1
   952   908   909      1
   953   908   910      1
   954   908   911      1
   955   909   912      1
   956   909   913      1
   957   909   917      1
   958   914   915      1
   959   914   919      1
   960   914   921      1
   961   914   922      1
   962   915   916      1
   963   915   923      1
   964   915   924      1
   965   916   917      1
   966   916   918      1
   967   916   925      1
   968   917   926      1
   969   917   927      1
   970   918   919      1
   971   918   928      1
   972   918   929      1
   973   919   920      1
   974   919   930      1
   975   920   931      1
   976   920   932      1
   977   920   936      1
   978   933   934      1
   979   933   938      1
   980   933   940      1
   981   933   941      1
   982   934   935      1
   983   934   942      1
   984   934   943      1
   985   935   936      1
   986   935   937      1
   987   935   944      1
   988   936   945      1
   989   936   946      1
   990   937   938      1
   991   937   947      1
   992   937   948      1
   993   938   939      1
   994   938   949      1
   995   939   950      1
   996   939   951      1
   997   939   955      1
   998   952   953      1
   999   952   957      1
  1000   952   959      1
  1001   952   960      1
  1002   953   954      1
  1003   953   961      1
  1004   953   962      1
  1005   954   955      1
  1006   954   956      1
  1007   954   963      1
  1008   955   964      1
  1009   955   965      1
  1010   956   957      1
  1011   956   966      1
  1012   956   967      1
  1013   957   958      1
  1014   957   968      1
  1015   958   969      1
  1016   958   970      1
  1017   958   971      1
  1018   971   972      1
  1019   971   973      1
  1020   971   974      1
  1021   972   975      1
  1022   972   976      1
  1023   972   980      1
  1024   977   978      1
  1025   977   982      1
  1026   977   984      1
  1027   977   985      1
  1028   978   979      1
  1029   978   986      1
  1030   978   987      1
  1031   979   980      1
  1032   979   981      1
  1033   979   988      1
  1034   980   989      1
  1035   980   990      1
  1036   981   982      1
  1037   981   991      1
  1038   981   992      1
  1039   982   983      1
  1040   982   993      1
  1041   983   994      1
  1042   983   995      1
  1043   983   999      1
  1044   996   997      1
  1045   996  1001      1
  1046   996  1003      1
  1047   996  1004      1
  1048   997   998      1
  1049   997  1005      1
  1050   997  1006      1
  1051   998   999      1
  1052   998  1000      1
  1053   998  1007      1
  1054   999  1008      1
  1055   999  1009      1
  1056  1000  1001      1
  1057  1000  1010      1
  1058  1000  1011      1
  1059  1001  1002      1
  1060  1001  1012      1
  1061  1002  1013      1
  1062  1002  1014      1
  1063  1002  1015      1
  1064  1015  1016      1
  1065  1015  1017      1
  1066  1015  1018      1
  1067  1016  1019      1
  1068  1016  1020      1
  1069  1016  1024      1
  1070  1021  1022      1
  1071  1021  1026      1
  1072  1021  1028      1
  1073  1021  1029      1
  1074  1022  1023      1
  1075  1022  1030      1
  1076  1022  1031      1
  1077  1023  1024      1
  1078  1023  1025      1
  1079  1023  1032      1
  1080  1024  1033      1
  1081  1024  1034      1
  1082  1025  1026      1
  1083  1025  1035      1
  1084  1025  1036      1
  1085  1026  1027      1
  1086  1026  1037      1
  1087  1027  1038      1
  1088  1027  1039      1
  1089  1027  1043      1
  1090  1040  1041      1
  1091  1040  1045      1
  1092  1040  1047      1
  1093  1040  1048      1
  1094  1041  1042      1
  1095  1041  1049      1
  1096  1041  1050      1
  1097  1042  1043      1
  1098  1042  1044      1
  1099  1042  1051      1
  1100  1043  1052      1
  1101  1043  1053      1
  1102  1044  1045      1
  1103  1044  1054      1
  1104  1044  1055      1
  1105  1045  1046      1
  1106  1045  1056      1
  1107  1046  1057      1
  1108  1046  1058      1
  1109  1046  1059      1
  1110  1059  1060      1
  1111  1059  1061      1
  1112  1059  1062      1
  1113  1060  1063      1
  1114  1060  1064      1
  1115  1060  1068      1
  1116  1065  1066      1
  1117  1065  1070      1
  1118  1065  1072      1
  1119  1065  1073      1
  1120  1066  1067      1
  1121  1066  1074      1
  1122  1066  1075      1
  1123  1067  1068      1
  1124  1067  1069      1
  1125  1067  1076      1
  1126  1068  1077      1
  1127  1068  1078      1
  1128  1069  1070      1
  1129  1069  1079      1
  1130  1069  1080      1
  1131  1070  1071      1
  1132  1070  1081      1
  1133  1071  1082      1
  1134  1071  1083      1
  1135  1071  1087      1
  1136  1084  1085      1
  1137  1084  1089      1
  1138  1084  1091      1
  1139  1084  1092      1
  1140  1085  1086      1
  1141  1085  1093      1
  1142  1085  1094      1
  1143  1086  1087      1
  1144  1086  1088      1
  1145  1086  1095      1
  1146  1087  1096      1
  1147  1087  1097      1
  1148  1088  1089      1
  1149  1088  1098      1
  1150  1088  1099      1
  1151  1089  1090      1
  1152  1089  1100      1
  1153  1090  1101      1
  1154  1090  1102      1
  1155  1090  1103      1
  1156  1103  1104      1
  1157  1103  1105      1
  1158  1103  1106      1
  1159  1104  1107      1
  1160  1104  1108      1
  1161  1104  1109      1
  1162  1109  1110      1
  1163  1109  1111      1
  1164  1109  1112      1
  1165  1110  1113      1
  1166  1110  1114      1
  1167  1110  1118      1
  1168  1115  1116      1
  1169  1115  1120      1
  1170  1115  1122      1
  1171  1115  1123      1
  1172  1116  1117      1
  1173  1116  1124      1
  1174  1116  1125      1
  1175  1117  1118      1
  1176  1117  1119      1
  1177  1117  1126      1
  1178  1118  1127      1
  1179  1118  1128      1
  1180  1119  1120      1
  1181  1119  1129      1
  1182  1119  1130      1
  1183  1120  1121      1
  1184  1120  1131      1
  1185  1121  1132      1
  1186  1121  1133      1
  1187  1121  1137      1
  1188  1134  1135      1
  1189  1134  1139      1
  1190  1134  1141      1
  1191  1134  1142      1
  1192  1135  1136      1
  1193  1135  1143      1
  1194  1135  1144      1
  1195  1136  1137      1
  1196  1136  1138      1
  1197  1136  1145      1
  1198  1137  1146      1
  1199  1137  1147      1
  1200  1138  1139      1
  1201  1138  1148      1
  1202  1138  1149      1
  1203  1139  1140      1
  1204  1139  1150      1
  1205  1140  1151      1
  1206  1140  1152      1
  1207  1140  1153      1
  1208  1153  1154      1
  1209  1153  1155      1
  1210  1153  1156      1
  1211  1154  1157      1
  1212  1154  1158      1
  1213  1154  1162      1
  1214  1159  1160      1
  1215  1159  1164      1
  1216  1159  1166      1
  1217  1159  1167      1
  1218  1160  1161      1
  1219  1160  1168      1
  1220  1160  1169      1
  1221  1161  1162      1
  1222  1161  1163      1
  1223  1161  1170      1
  1224  1162  1171      1
  1225  1162  1172      1
  1226  1163  1164      1
  1227  1163  1173      1
  1228  1163  1174      1
  1229  1164  1165      1
  1230  1164  1175      1
  1231  1165  1176      1
  1232  1165  1177      1
  1233  1165  1181      1
  1234  1178  1179      1
  1235  1178  1183      1
  1236  1178  1185      1
  1237  1178  1186      1
  1238  1179  1180      1
  1239  1179  1187      1
  1240  1179  1188      1
  1241  1180  1181      1
  1242  1180  1182      1
  1243  1180  1189      1
  1244  1181  1190      1
  1245  1181  1191      1
  1246  1182  1183      1
  1247  1182  1192      1
  1248  1182  1193      1
  1249  1183  1184      1
  1250  1183  1194      1
  1251  1184  1195      1
  1252  1184  1196      1
  1253  1184  1200      1
  1254  1197  1198      1
  1255  1197  1202      1
  1256  1197  1204      1
  1257  1197  1205      1
  1258  1198  1199      1
  1259  1198  1206      1
  1260  1198  1207      1
  1261  1199  1200      1
  1262  1199  1201      1
  1263  1199  1208      1
  1264  1200  1209      1
  1265  1200  1210      1
  1266  1201  1202      1
  1267  1201  1211      1
  1268  1201  1212      1
  1269  1202  1203      1
  1270  1202  1213      1
  1271  1203  1214      1
  1272  1203  1215      1
  1273  1203  1219      1
  1274  1216  1217      1
  1275  1216  1221      1
  1276  1216  1223      1
  1277  1216  1224      1
  1278  1217  1218      1
  1279  1217  1225      1
  1280  1217  1226      1
  1281  1218  1219      1
  1282  1218  1220      1
  1283  1218  1227      1
  1284  1219  1228      1
  1285  1219  1229      1
  1286  1220  1221      1
  1287  1220  1230      1
  1288  1220  1231      1
  1289  1221  1222      1
  1290  1221  1232      1
  1291  1222  1233      1
  1292  1222  1234      1
  1293  1222  1235      1
  1294  1235  1236      1
  1295  1235  1237      1
  1296  1235  1238      1
  1297  1236  1239      1
  1298  1236  1240      1
  1299  1236  1244      1
  1300  1241  1242      1
  1301  1241  1246      1
  1302  1241  1248      1
  1303  1241  1249      1
  1304  1242  1243      1
  1305  1242  1250      1
  1306  1242  1251      1
  1307  1243  1244      1
  1308  1243  1245      1
  1309  1243  1252      1
  1310  1244  1253      1
  1311  1244  1254      1
  1312  1245  1246      1
  1313  1245  1255      1
  1314  1245  1256      1
  1315  1246  1247      1
  1316  1246  1257      1
  1317  1247  1258      1
  1318  1247  1259      1
  1319  1247  1260      1
  1320  1260  1261      1
  1321  1260  1262      1
  1322  1260  1263      1
  1323  1261  1264      1
  1324  1261  1265      1
  1325  1261  1269      1
  1326  1266  1267      1
  1327  1266  1271      1
  1328  1266  1273      1
  1329  1266  1274      1
  1330  1267  1268      1
  1331  1267  1275      1
  1332  1267  1276      1
  1333  1268  1269      1
  1334  1268  1270      1
  1335  1268  1277      1
  1336  1269  1278      1
  1337  1269  1279      1
  1338  1270  1271      1
  1339  1270  1280      1
  1340  1270  1281      1
  1341  1271  1272      1
  1342  1271  1282      1
  1343  1272  1283      1
  1344  1272  1284      1
  1345  1272  1288      1
  1346  1285  1286      1
  1347  1285  1290      1
  1348  1285  1292      1
  1349  1285  1293      1
  1350  1286  1287      1
  1351  1286  1294      1
  1352  1286  1295      1
  1353  1287  1288      1
  1354  1287  1289      1
  1355  1287  1296      1
  1356  1288  1297      1
  1357  1288  1298      1
  1358  1289  1290      1
  1359  1289  1299      1
  1360  1289  1300      1
  1361  1290  1291      1
  1362  1290  1301      1
  1363  1291  1302      1
  1364  1291  1303      1
  1365  1291  1307      1
  1366  1304  1305      1
  1367  1304  1309      1
  1368  1304  1311      1
  1369  1304  1312      1
  1370  1305  1306      1
  1371  1305  1313      1
  1372  1305  1314      1
  1373  1306  1307      1
  1374  1306  1308      1
  1375  1306  1315      1
  1376  1307  1316      1
  1377  1307  1317      1
  1378  1308  1309      1
  1379  1308  1318      1
  1380  1308  1319      1
  1381  1309  1310      1
  1382  1309  1320      1
  1383  1310  1321      1
  1384  1310  1322      1
  1385  1310  1326      1
  1386  1323  1324      1
  1387  1323  1328      1
  1388  1323  1330      1
  1389  1323  1331      1
  1390  1324  1325      1
  1391  1324  1332      1
  1392  1324  1333      1
  1393  1325  1326      1
  1394  1325  1327      1
  1395  1325  1334      1
  1396  1326  1335      1
  1397  1326  1336      1
  1398  1327  1328      1
  1399  1327  1337      1
  1400  1327  1338      1
  1401  1328  1329      1
  1402  1328  1339      1
  1403  1329  1340      1
  1404  1329  1341      1
  1405  1329  1342      1
  1406  1342  1343      1
  1407  1342  1344      1
  1408  1342  1345      1
  1409  1343  1346      1
  1410  1343  1347      1
  1411  1343  1348      1
  1412  1348  1349      1
  1413  1348  1350      1
  1414  1348  1351      1
  1415  1349  1352      1
  1416  1349  1353      1
  1417  1349  1357      1
  1418  1354  1355      1
  1419  1354  1359      1
  1420  1354  1361      1
  1421  1354  1362      1
  1422  1355  1356      1
  1423  1355  1363      1
  1424  1355  1364      1
  1425  1356  1357      1
  1426  1356  1358      1
  1427  1356  1365      1
  1428  1357  1366      1
  1429  1357  1367      1
  1430  1358  1359      1
  1431  1358  1368      1
  1432  1358  1369      1
  1433  1359  1360      1
  1434  1359  1370      1
  1435  1360  1371      1
  1436  1360  1372      1
  1437  1360  1373      1
  1438  1373  1374      1
  1439  1373  1375      1
  1440  1373  1376      1
  1441  1374  1377      1
  1442  1374  1378      1
  1443  1374  1382      1
  1444  1379  1380      1
  1445  1379  1384      1
  1446  1379  1386      1
  1447  1379  1387      1
  1448  1380  1381      1
  1449  1380  1388      1
  1450  1380  1389      1
  1451  1381  1382      1
  1452  1381  1383      1
  1453  1381  1390      1
  1454  1382  1391      1
  1455  1382  1392      1
  1456  1383  1384      1
  1457  1383  1393      1
  1458  1383  1394      1
  1459  1384  1385      1
  1460  1384  1395      1
  1461  1385  1396      1
  1462  1385  1397      1
  1463  1385  1398      1
  1464  1398  1399      1
  1465  1398  1400      1
  1466  1398  1401      1
  1467  1399  1402      1
  1468  1399  1403      1
  1469  1399  1404      1
  1470  1404  1405      1
  1471  1404  1406      1
  1472  1404  1407      1
  1473  1405  1408      1
  1474  1405  1409      1
  1475  1405  1413      1
  1476  1410  1411      1
  1477  1410  1415      1
  1478  1410  1417      1
  1479  1410  1418      1
  1480  1411  1412      1
  1481  1411  1419      1
  1482  1411  1420      1
  1483  1412  1413      1
  1484  1412  1414      1
  1485  1412  1421      1
  1486  1413  1422      1
  1487  1413  1423      1
  1488  1414  1415      1
  1489  1414  1424      1
  1490  1414  1425      1
  1491  1415  1416      1
  1492  1415  1426      1
  1493  1416  1427      1
  1494  1416  1428      1
  1495  1416  1432      1
  1496  1429  1430      1
  1497  1429  1434      1
  1498  1429  1436      1
  1499  1429  1437      1
  1500  1430  1431      1
  1501  1430  1438      1
  1502  1430  1439      1
  1503  1431  1432      1
  1504  1431  1433      1
  1505  1431  1440      1
  1506  1432  1441      1
  1507  1432  1442      1
  1508  1433  1434      1
  1509  1433  1443      1
  1510  1433  1444      1
  1511  1434  1435      1
  1512  1434  1445      1
  1513  1435  1446      1
  1514  1435  1447      1
  1515  1435  1451      1
  1516  1448  1449      1
  1517  1448  1453      1
  1518  1448  1455      1
  1519  1448  1456      1
  1520  1449  1450      1
  1521  1449  1457      1
  1522  1449  1458      1
  1523  1450  1451      1
  1524  1450  1452      1
  1525  1450  1459      1
  1526  1451  1460      1
  1527  1451  1461      1
  1528  1452  1453      1
  1529  1452  1462      1
  1530  1452  1463      1
  1531  1453  1454      1
  1532  1453  1464      1
  1533  1454  1465      1
  1534  1454  1466      1
  1535  1454  1470      1
  1536  1467  1468      1
  1537  1467  1472      1
  1538  1467  1474      1
  1539  1467  1475      1
  1540  1468  1469      1
  1541  1468  1476      1
  1542  1468  1477      1
  1543  1469  1470      1
  1544  1469  1471      1
  1545  1469  1478      1
  1546  1470  1479      1
  1547  1470  1480      1
  1548  1471  1472      1
  1549  1471  1481      1
  1550  1471  1482      1
  1551  1472  1473      1
  1552  1472  1483      1
  1553  1473  1484      1
  1554  1473  1485      1
  1555  1473  1489      1
  1556  1486  1487      1
  1557  1486  1491      1
  1558  1486  1493      1
  1559  1486  1494      1
  1560  1487  1488      1
  1561  1487  1495      1
  1562  1487  1496      1
  1563  1488  1489      1
  1564  1488  1490      1
  1565  1488  1497      1
  1566  1489  1498      1
  1567  1489  1499      1
  1568  1490  1491      1
  1569  1490  1500      1
  1570  1490  1501      1
  1571  1491  1492      1
  1572  1491  1502      1
  1573  1492  1503      1
  1574  1492  1504      1
  1575  1492  1508      1
  1576  1505  1506      1
  1577  1505  1510      1
  1578  1505  1512      1
  1579  1505  1513      1
  1580  1506  1507      1
  1581  1506  1514      1
  1582  1506  1515      1
  1583  1507  1508      1
  1584  1507  1509      1
  1585  1507  1516      1
  1586  1508  1517      1
  1587  1508  1518      1
  1588  1509  1510      1
  1589  1509  1519      1
  1590  1509  1520      1
  1591  1510  1511      1
  1592  1510  1521      1
  1593  1511  1522      1
  1594  1511  1523      1
  1595  1511  1524      H
