###
### Created by PolyChef-cpp17 on Wed Feb 26 21:14:13 2025
###

@<TRIPOS>MOLECULE
NO_INFO
581 607 1 0 0
SMALL
USER_CHARGES


@<TRIPOS>ATOM
      1 C         181.0954  194.0035   65.5335 C.3       0        0    0.0000
      2 C         181.7036  192.6607   65.1532 C.3       0        0    0.0000
      3 C         183.1743  192.8273   65.5495 C.3       0        0    0.0000
      4 C         184.1396  191.8078   64.9372 C.3       0        0    0.0000
      5 C         183.5048  194.3065   65.2700 C.3       0        0    0.0000
      6 C         182.1489  195.0052   65.0494 C.3       0        0    0.0000
      7 C         182.0308  196.4167   65.6323 C.3       0        0    0.0000
      8 H         180.1249  194.1633   65.0536 H         0        0    0.0000
      9 H         180.9503  194.0500   66.6184 H         0        0    0.0000
     10 H         181.2262  191.8309   65.6835 H         0        0    0.0000
     11 H         181.5832  192.4914   64.0775 H         0        0    0.0000
     12 H         183.2279  192.6922   66.6404 H         0        0    0.0000
     13 H         183.7287  191.4529   63.9846 H         0        0    0.0000
     14 H         185.0879  192.3068   64.7047 H         0        0    0.0000
     15 H         184.1348  194.4419   64.3843 H         0        0    0.0000
     16 H         184.0655  194.7221   66.1142 H         0        0    0.0000
     17 H         182.0181  195.1046   63.9612 H         0        0    0.0000
     18 H         181.3246  196.9965   65.0261 H         0        0    0.0000
     19 H         181.6032  196.3538   66.6400 H         0        0    0.0000
     20 C         186.1967  196.3545   67.9745 C.3       1        0    0.0000
     21 C         184.9193  195.8592   67.2920 C.3       1        0    0.0000
     22 C         184.0168  197.0912   67.1001 C.3       1        0    0.0000
     23 C         183.3798  197.1930   65.7086 C.3       1        0    0.0000
     24 C         184.9262  198.2835   67.4140 C.3       1        0    0.0000
     25 C         185.8859  197.7640   68.4899 C.3       1        0    0.0000
     26 C         185.2525  197.7691   69.8941 C.3       1        0    0.0000
     27 H         186.5365  195.6647   68.7528 H         1        0    0.0000
     28 H         186.9970  196.4138   67.2257 H         1        0    0.0000
     29 H         185.1674  195.3621   66.3478 H         1        0    0.0000
     30 H         184.4114  195.1206   67.9232 H         1        0    0.0000
     31 H         183.2225  197.0586   67.8595 H         1        0    0.0000
     32 H         183.1888  198.2467   65.4729 H         1        0    0.0000
     33 H         184.0685  196.8161   64.9437 H         1        0    0.0000
     34 H         184.3560  199.1595   67.7399 H         1        0    0.0000
     35 H         185.4980  198.5730   66.5227 H         1        0    0.0000
     36 H         186.7963  198.3765   68.4977 H         1        0    0.0000
     37 H         185.8930  197.2548   70.6191 H         1        0    0.0000
     38 H         184.3015  197.2241   69.8663 H         1        0    0.0000
     39 C         184.9674  199.2151   70.3938 C.3       2        0    0.0000
     40 C         183.7123  199.3363   71.2699 C.3       2        0    0.0000
     41 H         185.8334  199.5188   70.9958 H         2        0    0.0000
     42 H         184.9246  199.8998   69.5387 H         2        0    0.0000
     43 H         182.8674  198.7902   70.8341 H         2        0    0.0000
     44 H         183.9255  198.8642   72.2374 H         2        0    0.0000
     45 C         183.1146  200.3275   75.2467 C.3       3        0    0.0000
     46 C         182.8015  199.7422   73.8675 C.3       3        0    0.0000
     47 C         182.5731  200.9366   72.9240 C.3       3        0    0.0000
     48 C         183.2865  200.8149   71.5718 C.3       3        0    0.0000
     49 C         183.0469  202.1530   73.7261 C.3       3        0    0.0000
     50 C         182.7184  201.8065   75.1823 C.3       3        0    0.0000
     51 C         181.2366  202.0518   75.5247 C.3       3        0    0.0000
     52 H         182.6176  199.7717   76.0475 H         3        0    0.0000
     53 H         184.1949  200.2520   75.4255 H         3        0    0.0000
     54 H         183.6212  199.0926   73.5411 H         3        0    0.0000
     55 H         181.8968  199.1246   73.9117 H         3        0    0.0000
     56 H         181.4919  201.0401   72.7540 H         3        0    0.0000
     57 H         182.6138  201.1530   70.7746 H         3        0    0.0000
     58 H         184.1665  201.4676   71.5430 H         3        0    0.0000
     59 H         182.5668  203.0779   73.3904 H         3        0    0.0000
     60 H         184.1313  202.2838   73.6169 H         3        0    0.0000
     61 H         183.3515  202.4005   75.8537 H         3        0    0.0000
     62 H         180.8542  201.2807   76.2026 H         3        0    0.0000
     63 H         180.6373  201.9960   74.6082 H         3        0    0.0000
     64 C         181.0158  203.4539   76.1629 C.3       4        0    0.0000
     65 C         179.8066  203.5264   77.1064 C.3       4        0    0.0000
     66 H         181.9170  203.6819   76.7464 H         4        0    0.0000
     67 H         180.9526  204.2130   75.3744 H         4        0    0.0000
     68 H         178.8696  203.6296   76.5467 H         4        0    0.0000
     69 H         179.7431  202.5763   77.6521 H         4        0    0.0000
     70 C         182.8004  206.1986   78.3819 C.3       5        0    0.0000
     71 C         182.4428  204.7151   78.2577 C.3       5        0    0.0000
     72 C         181.1583  204.5061   79.0673 C.3       5        0    0.0000
     73 C         179.9062  204.6613   78.1837 C.3       5        0    0.0000
     74 C         181.2955  205.5669   80.1668 C.3       5        0    0.0000
     75 C         181.8603  206.7924   79.4440 C.3       5        0    0.0000
     76 C         182.5317  207.7788   80.4062 C.3       5        0    0.0000
     77 H         183.8572  206.3030   78.6529 H         5        0    0.0000
     78 H         182.6593  206.7106   77.4231 H         5        0    0.0000
     79 H         183.2507  204.1186   78.7001 H         5        0    0.0000
     80 H         182.3500  204.4030   77.2125 H         5        0    0.0000
     81 H         181.1581  203.5025   79.5119 H         5        0    0.0000
     82 H         179.9495  205.6261   77.6638 H         5        0    0.0000
     83 H         178.9927  204.6728   78.7877 H         5        0    0.0000
     84 H         182.0046  205.2131   80.9266 H         5        0    0.0000
     85 H         180.3545  205.7926   80.6773 H         5        0    0.0000
     86 H         181.0341  207.3023   78.9287 H         5        0    0.0000
     87 H         182.2263  208.8057   80.1742 H         5        0    0.0000
     88 H         183.6192  207.7330   80.2743 H         5        0    0.0000
     89 C         183.3476  210.2085   84.2015 C.3       6        0    0.0000
     90 C         183.0259  209.6886   82.7979 C.3       6        0    0.0000
     91 C         183.1429  208.1603   82.8676 C.3       6        0    0.0000
     92 C         182.1948  207.4589   81.8910 C.3       6        0    0.0000
     93 C         182.8754  207.8576   84.3457 C.3       6        0    0.0000
     94 C         183.6455  208.9728   85.0607 C.3       6        0    0.0000
     95 C         183.2575  209.1767   86.5278 C.3       6        0    0.0000
     96 H         184.2024  210.8932   84.1884 H         6        0    0.0000
     97 H         182.4883  210.7690   84.5889 H         6        0    0.0000
     98 H         183.7127  210.1013   82.0511 H         6        0    0.0000
     99 H         182.0133  210.0011   82.5160 H         6        0    0.0000
    100 H         184.1822  207.8853   82.6357 H         6        0    0.0000
    101 H         181.1657  207.7799   82.0920 H         6        0    0.0000
    102 H         182.2235  206.3740   82.0461 H         6        0    0.0000
    103 H         183.2353  206.8640   84.6313 H         6        0    0.0000
    104 H         181.8030  207.9141   84.5705 H         6        0    0.0000
    105 H         184.7216  208.7573   84.9895 H         6        0    0.0000
    106 H         182.2358  209.5675   86.6002 H         6        0    0.0000
    107 H         183.9166  209.9304   86.9751 H         6        0    0.0000
    108 C         183.3703  207.8676   87.3564 C.3       7        0    0.0000
    109 C         183.4799  208.0954   88.8708 C.3       7        0    0.0000
    110 H         182.4563  207.2912   87.1641 H         7        0    0.0000
    111 H         184.2058  207.2644   86.9822 H         7        0    0.0000
    112 H         183.1285  209.0956   89.1503 H         7        0    0.0000
    113 H         182.8168  207.3785   89.3718 H         7        0    0.0000
    114 C         184.9189  207.8605   89.4479 C.3       8        0    0.0000
    115 C         185.0053  207.9802   90.9762 C.3       8        0    0.0000
    116 H         185.5658  208.6308   89.0089 H         8        0    0.0000
    117 H         185.3028  206.8940   89.1011 H         8        0    0.0000
    118 H         184.3710  207.1995   91.4152 H         8        0    0.0000
    119 H         186.0247  207.7937   91.3339 H         8        0    0.0000
    120 C         184.4907  209.3507   91.5381 C.3       9        0    0.0000
    121 C         184.0066  209.2859   92.9937 C.3       9        0    0.0000
    122 H         185.3355  210.0497   91.4910 H         9        0    0.0000
    123 H         183.7140  209.7528   90.8770 H         9        0    0.0000
    124 H         183.1695  209.9723   93.1667 H         9        0    0.0000
    125 H         183.6262  208.2736   93.1812 H         9        0    0.0000
    126 C         185.1332  209.5492   94.0520 C.3      10        0    0.0000
    127 C         184.6344  209.5619   95.5041 C.3      10        0    0.0000
    128 H         185.5536  210.5379   93.8279 H        10        0    0.0000
    129 H         185.9450  208.8251   93.9154 H        10        0    0.0000
    130 H         184.0109  208.6718   95.6577 H        10        0    0.0000
    131 H         185.4676  209.4869   96.2128 H        10        0    0.0000
    132 C         182.3553  211.6541   99.2950 C.3      11        0    0.0000
    133 C         182.6206  212.0326   97.8446 C.3      11        0    0.0000
    134 C         183.0327  210.6988   97.2131 C.3      11        0    0.0000
    135 C         183.7465  210.8037   95.8620 C.3      11        0    0.0000
    136 C         183.8050  209.9491   98.3162 C.3      11        0    0.0000
    137 C         183.5223  210.7167   99.6224 C.3      11        0    0.0000
    138 C         183.3384  209.8494  100.8715 C.3      11        0    0.0000
    139 H         182.3361  212.5310   99.9494 H        11        0    0.0000
    140 H         181.3863  211.1490   99.3743 H        11        0    0.0000
    141 H         181.7341  212.4585   97.3645 H        11        0    0.0000
    142 H         183.4236  212.7765   97.7972 H        11        0    0.0000
    143 H         182.1070  210.1312   97.0342 H        11        0    0.0000
    144 H         182.9989  210.9415   95.0718 H        11        0    0.0000
    145 H         184.3774  211.7005   95.8585 H        11        0    0.0000
    146 H         184.8849  209.9200   98.1352 H        11        0    0.0000
    147 H         183.4701  208.9069   98.3539 H        11        0    0.0000
    148 H         184.3998  211.3537   99.8108 H        11        0    0.0000
    149 H         183.1760  210.5005  101.7387 H        11        0    0.0000
    150 H         182.4311  209.2445  100.7574 H        11        0    0.0000
    151 C         185.5425  211.1604  104.0234 C.3      12        0    0.0000
    152 C         185.1858  210.9439  102.5505 C.3      12        0    0.0000
    153 C         185.4682  209.4657  102.2518 C.3      12        0    0.0000
    154 C         184.5372  208.9013  101.1749 C.3      12        0    0.0000
    155 C         185.3324  208.8007  103.6255 C.3      12        0    0.0000
    156 C         186.0257  209.8040  104.5533 C.3      12        0    0.0000
    157 C         185.7159  209.6166  106.0411 C.3      12        0    0.0000
    158 H         186.3174  211.9259  104.1392 H        12        0    0.0000
    159 H         184.6562  211.5107  104.5660 H        12        0    0.0000
    160 H         185.7742  211.5962  101.8961 H        12        0    0.0000
    161 H         184.1294  211.1909  102.3906 H        12        0    0.0000
    162 H         186.5131  209.3766  101.9207 H        12        0    0.0000
    163 H         184.1415  207.9347  101.5089 H        12        0    0.0000
    164 H         185.0957  208.7119  100.2507 H        12        0    0.0000
    165 H         185.8135  207.8178  103.6535 H        12        0    0.0000
    166 H         184.2772  208.6765  103.8994 H        12        0    0.0000
    167 H         187.1115  209.7397  104.3909 H        12        0    0.0000
    168 H         185.3606  208.5968  106.2301 H        12        0    0.0000
    169 H         184.9026  210.2932  106.3296 H        12        0    0.0000
    170 C         186.9463  209.9107  106.9425 C.3      13        0    0.0000
    171 C         186.5868  210.2677  108.3919 C.3      13        0    0.0000
    172 H         187.5537  208.9967  106.9577 H        13        0    0.0000
    173 H         187.5643  210.6900  106.4813 H        13        0    0.0000
    174 H         185.5009  210.2785  108.5424 H        13        0    0.0000
    175 H         186.9863  209.4816  109.0453 H        13        0    0.0000
    176 C         184.9589  213.5212  111.0850 C.3      14        0    0.0000
    177 C         185.1971  212.1994  110.3565 C.3      14        0    0.0000
    178 C         186.7212  211.9991  110.2933 C.3      14        0    0.0000
    179 C         187.2021  211.6228  108.8857 C.3      14        0    0.0000
    180 C         187.3109  213.3144  110.8255 C.3      14        0    0.0000
    181 C         186.2652  213.8430  111.8155 C.3      14        0    0.0000
    182 C         186.3202  213.1808  113.2044 C.3      14        0    0.0000
    183 H         184.7579  214.3042  110.3427 H        14        0    0.0000
    184 H         184.0899  213.4745  111.7488 H        14        0    0.0000
    185 H         184.7281  212.2189  109.3666 H        14        0    0.0000
    186 H         184.7404  211.3725  110.9129 H        14        0    0.0000
    187 H         186.9840  211.1902  110.9895 H        14        0    0.0000
    188 H         188.2963  211.5621  108.8606 H        14        0    0.0000
    189 H         186.9126  212.4118  108.1812 H        14        0    0.0000
    190 H         188.2964  213.1687  111.2785 H        14        0    0.0000
    191 H         187.4287  214.0374  110.0079 H        14        0    0.0000
    192 H         186.3671  214.9298  111.9289 H        14        0    0.0000
    193 H         186.6579  212.1412  113.1359 H        14        0    0.0000
    194 H         185.3104  213.1546  113.6318 H        14        0    0.0000
    195 C         187.2380  213.9613  114.1875 C.3      15        0    0.0000
    196 C         186.7445  213.9531  115.6414 C.3      15        0    0.0000
    197 H         188.2206  213.4732  114.1587 H        15        0    0.0000
    198 H         187.3854  214.9843  113.8220 H        15        0    0.0000
    199 H         185.6584  213.8134  115.6932 H        15        0    0.0000
    200 H         187.1962  213.0914  116.1494 H        15        0    0.0000
    201 C         190.6800  216.0126  117.1052 C.3      16        0    0.0000
    202 C         189.6952  215.0018  116.5196 C.3      16        0    0.0000
    203 C         188.4947  215.8086  115.9954 C.3      16        0    0.0000
    204 C         187.1532  215.2265  116.4600 C.3      16        0    0.0000
    205 C         188.7518  217.2465  116.4718 C.3      16        0    0.0000
    206 C         190.2792  217.3745  116.5323 C.3      16        0    0.0000
    207 C         190.9445  217.6382  115.1691 C.3      16        0    0.0000
    208 H         190.5628  216.0310  118.1963 H        16        0    0.0000
    209 H         191.7200  215.7424  116.8965 H        16        0    0.0000
    210 H         189.4136  214.2608  117.2757 H        16        0    0.0000
    211 H         190.1609  214.4554  115.6910 H        16        0    0.0000
    212 H         188.5310  215.7916  114.8969 H        16        0    0.0000
    213 H         186.3633  215.9828  116.3848 H        16        0    0.0000
    214 H         187.2260  214.9491  117.5185 H        16        0    0.0000
    215 H         188.2843  217.9863  115.8148 H        16        0    0.0000
    216 H         188.3392  217.3937  117.4785 H        16        0    0.0000
    217 H         190.5647  218.1689  117.2336 H        16        0    0.0000
    218 H         191.4159  216.7315  114.7749 H        16        0    0.0000
    219 H         191.7446  218.3776  115.2952 H        16        0    0.0000
    220 C         186.9570  217.2623  116.2429 C.3      17        0    0.0000
    221 C         187.8908  216.9986  115.0587 C.3      17        0    0.0000
    222 C         188.5258  218.3490  114.7020 C.3      17        0    0.0000
    223 C         189.9357  218.1950  114.1250 C.3      17        0    0.0000
    224 C         188.4570  219.1255  116.0212 C.3      17        0    0.0000
    225 C         187.0667  218.7610  116.5524 C.3      17        0    0.0000
    226 C         186.8508  219.0661  118.0372 C.3      17        0    0.0000
    227 H         185.9241  216.9843  116.0076 H        17        0    0.0000
    228 H         187.2710  216.6519  117.0982 H        17        0    0.0000
    229 H         187.3460  216.5828  114.2043 H        17        0    0.0000
    230 H         188.6499  216.2625  115.3493 H        17        0    0.0000
    231 H         187.8781  218.8486  113.9668 H        17        0    0.0000
    232 H         190.2945  219.1722  113.7802 H        17        0    0.0000
    233 H         189.9180  217.5374  113.2481 H        17        0    0.0000
    234 H         188.5662  220.2038  115.8672 H        17        0    0.0000
    235 H         189.2413  218.7944  116.7133 H        17        0    0.0000
    236 H         186.3121  219.2907  115.9527 H        17        0    0.0000
    237 H         187.2889  220.0378  118.2934 H        17        0    0.0000
    238 H         187.3737  218.3146  118.6409 H        17        0    0.0000
    239 C         184.4747  222.1616  120.2657 C.3      18        0    0.0000
    240 C         185.5967  221.2956  119.6878 C.3      18        0    0.0000
    241 C         185.0930  219.8416  119.7228 C.3      18        0    0.0000
    242 C         185.3480  219.0568  118.4301 C.3      18        0    0.0000
    243 C         183.6005  219.9622  120.0474 C.3      18        0    0.0000
    244 C         183.5005  221.1965  120.9501 C.3      18        0    0.0000
    245 C         183.8797  220.8882  122.4110 C.3      18        0    0.0000
    246 H         184.8621  222.9415  120.9282 H        18        0    0.0000
    247 H         183.9586  222.6682  119.4401 H        18        0    0.0000
    248 H         185.8489  221.6345  118.6769 H        18        0    0.0000
    249 H         186.5035  221.3900  120.2966 H        18        0    0.0000
    250 H         185.5839  219.3266  120.5609 H        18        0    0.0000
    251 H         185.0309  218.0162  118.5685 H        18        0    0.0000
    252 H         184.7474  219.4654  117.6093 H        18        0    0.0000
    253 H         183.2094  219.0560  120.5212 H        18        0    0.0000
    254 H         183.0226  220.1323  119.1297 H        18        0    0.0000
    255 H         182.4793  221.5966  120.9145 H        18        0    0.0000
    256 H         183.9699  219.8090  122.5771 H        18        0    0.0000
    257 H         183.0861  221.2478  123.0766 H        18        0    0.0000
    258 C         184.3006  224.4994  124.9323 C.3      19        0    0.0000
    259 C         183.8119  223.4473  123.9339 C.3      19        0    0.0000
    260 C         185.0171  223.0902  123.0455 C.3      19        0    0.0000
    261 C         185.2091  221.5851  122.8220 C.3      19        0    0.0000
    262 C         186.2155  223.7329  123.7512 C.3      19        0    0.0000
    263 C         185.6474  225.0000  124.3993 C.3      19        0    0.0000
    264 C         185.5079  226.1609  123.3963 C.3      19        0    0.0000
    265 H         183.5623  225.2930  125.0819 H        19        0    0.0000
    266 H         184.4560  224.0172  125.9059 H        19        0    0.0000
    267 H         183.4068  222.5817  124.4696 H        19        0    0.0000
    268 H         183.0023  223.8540  123.3167 H        19        0    0.0000
    269 H         184.8876  223.5862  122.0729 H        19        0    0.0000
    270 H         185.9456  221.4274  122.0250 H        19        0    0.0000
    271 H         185.6121  221.1123  123.7250 H        19        0    0.0000
    272 H         187.0364  223.9414  123.0575 H        19        0    0.0000
    273 H         186.6025  223.0649  124.5316 H        19        0    0.0000
    274 H         186.2946  225.3105  125.2295 H        19        0    0.0000
    275 H         184.6280  226.7741  123.6205 H        19        0    0.0000
    276 H         185.3648  225.7553  122.3877 H        19        0    0.0000
    277 C         186.7745  227.0650  123.3793 C.3      20        0    0.0000
    278 C         187.8321  226.6378  122.3514 C.3      20        0    0.0000
    279 H         186.4379  228.0771  123.1210 H        20        0    0.0000
    280 H         187.1998  227.1241  124.3881 H        20        0    0.0000
    281 H         187.3720  226.3734  121.3921 H        20        0    0.0000
    282 H         188.4866  227.4976  122.1590 H        20        0    0.0000
    283 C         186.3568  224.2706  125.3446 C.3      21        0    0.0000
    284 C         186.5479  224.7692  123.9130 C.3      21        0    0.0000
    285 C         187.9539  224.3240  123.4749 C.3      21        0    0.0000
    286 C         188.7547  225.4661  122.8358 C.3      21        0    0.0000
    287 C         188.5945  223.7450  124.7459 C.3      21        0    0.0000
    288 C         187.4198  223.1906  125.5618 C.3      21        0    0.0000
    289 C         186.9291  221.8062  125.1004 C.3      21        0    0.0000
    290 H         186.5398  225.1021  126.0372 H        21        0    0.0000
    291 H         185.3363  223.9184  125.5249 H        21        0    0.0000
    292 H         186.4101  225.8549  123.8651 H        21        0    0.0000
    293 H         185.7974  224.3199  123.2519 H        21        0    0.0000
    294 H         187.8375  223.5140  122.7410 H        21        0    0.0000
    295 H         189.3475  225.0909  121.9936 H        21        0    0.0000
    296 H         189.4649  225.8653  123.5698 H        21        0    0.0000
    297 H         189.3523  222.9898  124.5161 H        21        0    0.0000
    298 H         189.0868  224.5404  125.3205 H        21        0    0.0000
    299 H         187.6868  223.1436  126.6253 H        21        0    0.0000
    300 H         186.9803  221.7092  124.0106 H        21        0    0.0000
    301 H         185.8743  221.6868  125.3763 H        21        0    0.0000
    302 C         191.0268  219.8636  127.1770 C.3      22        0    0.0000
    303 C         190.1942  219.9905  125.9022 C.3      22        0    0.0000
    304 C         189.1474  221.0866  126.1664 C.3      22        0    0.0000
    305 C         187.7326  220.6513  125.7627 C.3      22        0    0.0000
    306 C         189.2981  221.4196  127.6588 C.3      22        0    0.0000
    307 C         190.7731  221.1438  127.9772 C.3      22        0    0.0000
    308 C         191.7304  222.2757  127.5615 C.3      22        0    0.0000
    309 H         190.6663  219.0009  127.7519 H        22        0    0.0000
    310 H         192.0856  219.6886  126.9614 H        22        0    0.0000
    311 H         189.7452  219.0258  125.6417 H        22        0    0.0000
    312 H         190.8320  220.2864  125.0610 H        22        0    0.0000
    313 H         189.4308  221.9717  125.5795 H        22        0    0.0000
    314 H         187.1863  220.2748  126.6353 H        22        0    0.0000
    315 H         187.7989  219.8216  125.0487 H        22        0    0.0000
    316 H         188.9950  222.4471  127.8827 H        22        0    0.0000
    317 H         188.6696  220.7526  128.2632 H        22        0    0.0000
    318 H         190.8971  220.9406  129.0486 H        22        0    0.0000
    319 H         192.0368  222.1727  126.5150 H        22        0    0.0000
    320 H         192.6453  222.2136  128.1632 H        22        0    0.0000
    321 C         191.9069  226.9192  126.1574 C.3      23        0    0.0000
    322 C         191.8435  225.3975  126.0046 C.3      23        0    0.0000
    323 C         192.0775  224.8044  127.4056 C.3      23        0    0.0000
    324 C         191.1038  223.6814  127.7833 C.3      23        0    0.0000
    325 C         191.9772  226.0060  128.3507 C.3      23        0    0.0000
    326 C         192.5218  227.1842  127.5360 C.3      23        0    0.0000
    327 C         194.0617  227.2219  127.5148 C.3      23        0    0.0000
    328 H         192.4518  227.3890  125.3331 H        23        0    0.0000
    329 H         190.8849  227.3191  126.1365 H        23        0    0.0000
    330 H         190.8801  225.1039  125.5736 H        23        0    0.0000
    331 H         192.6247  225.0502  125.3183 H        23        0    0.0000
    332 H         193.1067  224.4203  127.4500 H        23        0    0.0000
    333 H         190.8309  223.7778  128.8410 H        23        0    0.0000
    334 H         190.1758  223.7691  127.2066 H        23        0    0.0000
    335 H         192.5287  225.8422  129.2822 H        23        0    0.0000
    336 H         190.9292  226.1976  128.6152 H        23        0    0.0000
    337 H         192.1390  228.1258  127.9496 H        23        0    0.0000
    338 H         194.4377  227.4766  126.5178 H        23        0    0.0000
    339 H         194.4535  226.2272  127.7585 H        23        0    0.0000
    340 C         194.6770  231.9802  127.9183 C.3      24        0    0.0000
    341 C         195.1889  230.5800  127.6104 C.3      24        0    0.0000
    342 C         194.1795  229.6808  128.3317 C.3      24        0    0.0000
    343 C         194.6289  228.2333  128.5528 C.3      24        0    0.0000
    344 C         193.7829  230.4551  129.6039 C.3      24        0    0.0000
    345 C         194.3075  231.8903  129.4025 C.3      24        0    0.0000
    346 C         193.3952  233.0058  129.9217 C.3      24        0    0.0000
    347 H         195.4374  232.7442  127.7293 H        24        0    0.0000
    348 H         193.8075  232.2027  127.2899 H        24        0    0.0000
    349 H         195.2194  230.3833  126.5343 H        24        0    0.0000
    350 H         196.2033  230.4614  128.0068 H        24        0    0.0000
    351 H         193.2818  229.6357  127.6967 H        24        0    0.0000
    352 H         195.7241  228.1902  128.5244 H        24        0    0.0000
    353 H         194.3270  227.9137  129.5572 H        24        0    0.0000
    354 H         194.2194  230.0303  130.5143 H        24        0    0.0000
    355 H         192.6961  230.4134  129.7340 H        24        0    0.0000
    356 H         195.2473  231.9657  129.9702 H        24        0    0.0000
    357 H         193.9733  233.9342  129.9989 H        24        0    0.0000
    358 H         192.6008  233.1894  129.1886 H        24        0    0.0000
    359 C         190.6784  235.6690  132.4025 C.3      25        0    0.0000
    360 C         191.1962  234.7224  131.3303 C.3      25        0    0.0000
    361 C         192.3271  233.9804  132.0455 C.3      25        0    0.0000
    362 C         192.7412  232.7069  131.3041 C.3      25        0    0.0000
    363 C         191.7738  233.7489  133.4635 C.3      25        0    0.0000
    364 C         190.6676  234.8041  133.6694 C.3      25        0    0.0000
    365 C         190.7345  235.5785  134.9918 C.3      25        0    0.0000
    366 H         189.6824  236.0535  132.1615 H        25        0    0.0000
    367 H         191.3553  236.5254  132.4927 H        25        0    0.0000
    368 H         190.4036  234.0310  131.0193 H        25        0    0.0000
    369 H         191.5489  235.2601  130.4449 H        25        0    0.0000
    370 H         193.1901  234.6580  132.1204 H        25        0    0.0000
    371 H         193.4397  232.1234  131.9155 H        25        0    0.0000
    372 H         191.8582  232.0760  131.1467 H        25        0    0.0000
    373 H         191.3347  232.7481  133.5596 H        25        0    0.0000
    374 H         192.5751  233.8160  134.2069 H        25        0    0.0000
    375 H         189.7119  234.2590  133.6780 H        25        0    0.0000
    376 H         189.8642  236.2416  135.0631 H        25        0    0.0000
    377 H         191.6210  236.2238  134.9817 H        25        0    0.0000
    378 C         187.8178  235.0714  138.4515 C.3      26        0    0.0000
    379 C         188.5482  235.5552  137.1964 C.3      26        0    0.0000
    380 C         190.0493  235.3202  137.4427 C.3      26        0    0.0000
    381 C         190.7874  234.6798  136.2607 C.3      26        0    0.0000
    382 C         190.0980  234.4491  138.7021 C.3      26        0    0.0000
    383 C         188.8919  234.9026  139.5316 C.3      26        0    0.0000
    384 C         189.1717  236.1990  140.3151 C.3      26        0    0.0000
    385 H         187.0068  235.7481  138.7372 H        26        0    0.0000
    386 H         187.3627  234.0950  138.2411 H        26        0    0.0000
    387 H         188.1729  235.0226  136.3156 H        26        0    0.0000
    388 H         188.3605  236.6229  137.0335 H        26        0    0.0000
    389 H         190.5157  236.2875  137.6785 H        26        0    0.0000
    390 H         191.8382  234.5215  136.5314 H        26        0    0.0000
    391 H         190.3656  233.6937  136.0347 H        26        0    0.0000
    392 H         191.0468  234.5556  139.2379 H        26        0    0.0000
    393 H         189.9832  233.3897  138.4384 H        26        0    0.0000
    394 H         188.6069  234.1070  140.2318 H        26        0    0.0000
    395 H         188.2409  236.7235  140.5578 H        26        0    0.0000
    396 H         189.7674  236.8783  139.6939 H        26        0    0.0000
    397 C         189.9634  235.9221  141.6260 C.3      27        0    0.0000
    398 C         189.4257  236.6762  142.8506 C.3      27        0    0.0000
    399 H         189.8801  234.8461  141.8252 H        27        0    0.0000
    400 H         191.0279  236.1296  141.4655 H        27        0    0.0000
    401 H         189.9144  237.6509  142.9651 H        27        0    0.0000
    402 H         188.3595  236.8773  142.6855 H        27        0    0.0000
    403 C         189.5264  238.3508  147.0560 C.3      28        0    0.0000
    404 C         189.3231  238.0501  145.5789 C.3      28        0    0.0000
    405 C         190.0194  236.6965  145.3894 C.3      28        0    0.0000
    406 C         189.5321  235.8710  144.1919 C.3      28        0    0.0000
    407 C         189.9367  235.9897  146.7581 C.3      28        0    0.0000
    408 C         189.2762  236.9949  147.7194 C.3      28        0    0.0000
    409 C         189.8039  236.9489  149.1555 C.3      28        0    0.0000
    410 H         190.5519  238.6961  147.2355 H        28        0    0.0000
    411 H         188.8374  239.1210  147.4159 H        28        0    0.0000
    412 H         188.2510  237.9975  145.3602 H        28        0    0.0000
    413 H         189.7571  238.8260  144.9405 H        28        0    0.0000
    414 H         191.0843  236.9057  145.2083 H        28        0    0.0000
    415 H         190.2147  235.0262  144.0408 H        28        0    0.0000
    416 H         188.5504  235.4432  144.4274 H        28        0    0.0000
    417 H         190.9507  235.7322  147.0885 H        28        0    0.0000
    418 H         189.3673  235.0549  146.7251 H        28        0    0.0000
    419 H         188.1926  236.8070  147.7207 H        28        0    0.0000
    420 H         190.8896  236.7954  149.1548 H        28        0    0.0000
    421 H         189.6233  237.9163  149.6390 H        28        0    0.0000
    422 C         190.6156  235.8522  153.5010 C.3      29        0    0.0000
    423 C         190.7415  236.1277  152.0092 C.3      29        0    0.0000
    424 C         189.2960  236.0057  151.5160 C.3      29        0    0.0000
    425 C         189.1297  235.8338  150.0031 C.3      29        0    0.0000
    426 C         188.6630  234.9005  152.3839 C.3      29        0    0.0000
    427 C         189.6447  234.6680  153.5492 C.3      29        0    0.0000
    428 C         188.9997  234.4016  154.9128 C.3      29        0    0.0000
    429 H         191.5817  235.6107  153.9551 H        29        0    0.0000
    430 H         190.2131  236.7362  154.0078 H        29        0    0.0000
    431 H         191.1616  237.1185  151.8103 H        29        0    0.0000
    432 H         191.3982  235.3811  151.5492 H        29        0    0.0000
    433 H         188.7882  236.9453  151.7813 H        29        0    0.0000
    434 H         189.5463  234.8643  149.7050 H        29        0    0.0000
    435 H         188.0607  235.8051  149.7610 H        29        0    0.0000
    436 H         188.5148  233.9627  151.8376 H        29        0    0.0000
    437 H         187.6714  235.2220  152.7202 H        29        0    0.0000
    438 H         190.2263  233.7683  153.2976 H        29        0    0.0000
    439 H         187.9091  234.4070  154.8001 H        29        0    0.0000
    440 H         189.2766  233.3956  155.2498 H        29        0    0.0000
    441 C         192.7992  236.8761  155.2860 C.3      30        0    0.0000
    442 C         191.4309  236.3825  154.8414 C.3      30        0    0.0000
    443 C         190.9042  235.6654  156.0862 C.3      30        0    0.0000
    444 C         189.3938  235.4262  156.0187 C.3      30        0    0.0000
    445 C         191.3623  236.5654  157.2484 C.3      30        0    0.0000
    446 C         192.5499  237.3895  156.7098 C.3      30        0    0.0000
    447 C         193.7863  237.4324  157.6167 C.3      30        0    0.0000
    448 H         193.1830  237.6629  154.6290 H        30        0    0.0000
    449 H         193.5126  236.0451  155.2655 H        30        0    0.0000
    450 H         190.7901  237.2310  154.5725 H        30        0    0.0000
    451 H         191.4972  235.7154  153.9765 H        30        0    0.0000
    452 H         191.4247  234.7005  156.1738 H        30        0    0.0000
    453 H         189.0233  235.0718  156.9879 H        30        0    0.0000
    454 H         188.8853  236.3762  155.8157 H        30        0    0.0000
    455 H         190.5636  237.2508  157.5581 H        30        0    0.0000
    456 H         191.6204  235.9627  158.1255 H        30        0    0.0000
    457 H         192.1961  238.4274  156.6196 H        30        0    0.0000
    458 H         194.2908  238.3975  157.4891 H        30        0    0.0000
    459 H         194.4946  236.6621  157.2891 H        30        0    0.0000
    460 C         190.1465  235.4828  159.5822 C.3      31        0    0.0000
    461 C         191.3253  235.8504  158.6941 C.3      31        0    0.0000
    462 C         191.9991  237.0019  159.4511 C.3      31        0    0.0000
    463 C         193.4827  237.2192  159.1276 C.3      31        0    0.0000
    464 C         191.6738  236.7685  160.9408 C.3      31        0    0.0000
    465 C         190.7459  235.5408  160.9888 C.3      31        0    0.0000
    466 C         189.6676  235.5954  162.0738 C.3      31        0    0.0000
    467 H         189.3396  236.2165  159.4651 H        31        0    0.0000
    468 H         189.7466  234.4926  159.3432 H        31        0    0.0000
    469 H         191.9866  234.9839  158.5863 H        31        0    0.0000
    470 H         191.0036  236.1525  157.6925 H        31        0    0.0000
    471 H         191.4798  237.9264  159.1578 H        31        0    0.0000
    472 H         193.8442  238.0919  159.6845 H        31        0    0.0000
    473 H         194.0577  236.3574  159.4866 H        31        0    0.0000
    474 H         191.1740  237.6595  161.3408 H        31        0    0.0000
    475 H         192.5656  236.6032  161.5545 H        31        0    0.0000
    476 H         191.3682  234.6460  161.1350 H        31        0    0.0000
    477 H         188.7809  236.1207  161.6998 H        31        0    0.0000
    478 H         189.3487  234.5754  162.3192 H        31        0    0.0000
    479 C         190.1638  236.2894  163.3733 C.3      32        0    0.0000
    480 C         191.2629  235.5141  164.1139 C.3      32        0    0.0000
    481 H         190.5751  237.2624  163.0756 H        32        0    0.0000
    482 H         189.3108  236.4974  164.0299 H        32        0    0.0000
    483 H         190.8364  234.8238  164.8512 H        32        0    0.0000
    484 H         191.7984  234.8981  163.3802 H        32        0    0.0000
    485 C         194.7736  234.3481  166.5893 C.3      33        0    0.0000
    486 C         193.6526  234.3756  165.5514 C.3      33        0    0.0000
    487 C         193.7106  235.7568  164.8762 C.3      33        0    0.0000
    488 C         192.3331  236.4290  164.8040 C.3      33        0    0.0000
    489 C         194.7502  236.5454  165.6875 C.3      33        0    0.0000
    490 C         195.7267  235.4854  166.2128 C.3      33        0    0.0000
    491 C         196.7783  235.0315  165.1840 C.3      33        0    0.0000
    492 H         194.3451  234.5488  167.5796 H        33        0    0.0000
    493 H         195.2628  233.3704  166.6409 H        33        0    0.0000
    494 H         192.6867  234.1736  166.0270 H        33        0    0.0000
    495 H         193.8120  233.5925  164.8008 H        33        0    0.0000
    496 H         194.0947  235.6173  163.8558 H        33        0    0.0000
    497 H         192.4026  237.3835  164.2694 H        33        0    0.0000
    498 H         191.9890  236.6592  165.8195 H        33        0    0.0000
    499 H         195.2383  237.3193  165.0870 H        33        0    0.0000
    500 H         194.2699  237.0445  166.5392 H        33        0    0.0000
    501 H         196.2364  235.8535  167.1124 H        33        0    0.0000
    502 H         196.9666  235.8110  164.4379 H        33        0    0.0000
    503 H         196.3961  234.1607  164.6375 H        33        0    0.0000
    504 C         197.8939  231.8530  168.4095 C.3      34        0    0.0000
    505 C         197.6586  232.4096  167.0137 C.3      34        0    0.0000
    506 C         197.9087  233.9081  167.1956 C.3      34        0    0.0000
    507 C         198.1184  234.6246  165.8594 C.3      34        0    0.0000
    508 C         199.1136  233.9644  168.1526 C.3      34        0    0.0000
    509 C         199.1363  232.6115  168.8933 C.3      34        0    0.0000
    510 C         199.2997  232.6974  170.4160 C.3      34        0    0.0000
    511 H         198.0553  230.7705  168.3958 H        34        0    0.0000
    512 H         197.0177  232.0530  169.0358 H        34        0    0.0000
    513 H         198.3726  231.9722  166.3051 H        34        0    0.0000
    514 H         196.6466  232.1996  166.6541 H        34        0    0.0000
    515 H         197.0400  234.3419  167.7120 H        34        0    0.0000
    516 H         198.7368  235.5187  166.0026 H        34        0    0.0000
    517 H         198.6704  233.9663  165.1780 H        34        0    0.0000
    518 H         200.0539  234.0845  167.6001 H        34        0    0.0000
    519 H         199.0311  234.8225  168.8279 H        34        0    0.0000
    520 H         200.0135  232.0633  168.5183 H        34        0    0.0000
    521 H         199.4753  231.6913  170.8148 H        34        0    0.0000
    522 H         198.3589  233.0496  170.8555 H        34        0    0.0000
    523 C         203.3847  235.3181  169.2207 C.3      35        0    0.0000
    524 C         202.1576  235.3661  170.1348 C.3      35        0    0.0000
    525 C         201.2622  234.1927  169.7157 C.3      35        0    0.0000
    526 C         200.4501  233.6331  170.8870 C.3      35        0    0.0000
    527 C         202.2535  233.2026  169.0952 C.3      35        0    0.0000
    528 C         203.1796  234.1177  168.2873 C.3      35        0    0.0000
    529 C         204.5041  233.4745  167.8669 C.3      35        0    0.0000
    530 H         203.4944  236.2459  168.6490 H        35        0    0.0000
    531 H         204.2893  235.2029  169.8298 H        35        0    0.0000
    532 H         201.6257  236.3190  170.0410 H        35        0    0.0000
    533 H         202.4770  235.2739  171.1798 H        35        0    0.0000
    534 H         200.5803  234.5462  168.9286 H        35        0    0.0000
    535 H         200.0137  234.4637  171.4545 H        35        0    0.0000
    536 H         201.1044  233.0879  171.5773 H        35        0    0.0000
    537 H         201.7518  232.4652  168.4606 H        35        0    0.0000
    538 H         202.8117  232.6661  169.8727 H        35        0    0.0000
    539 H         202.6382  234.4657  167.3955 H        35        0    0.0000
    540 H         205.0943  233.2066  168.7511 H        35        0    0.0000
    541 H         205.0964  234.2028  167.3002 H        35        0    0.0000
    542 C         201.1548  230.4519  165.7668 C.3      36        0    0.0000
    543 C         202.5419  230.4011  166.3921 C.3      36        0    0.0000
    544 C         202.8264  231.8722  166.7123 C.3      36        0    0.0000
    545 C         204.2947  232.2139  166.9837 C.3      36        0    0.0000
    546 C         202.1570  232.6714  165.5772 C.3      36        0    0.0000
    547 C         201.2403  231.6724  164.8444 C.3      36        0    0.0000
    548 C         199.8962  232.2341  164.3710 C.3      36        0    0.0000
    549 H         200.9209  229.5356  165.2159 H        36        0    0.0000
    550 H         200.4001  230.5797  166.5506 H        36        0    0.0000
    551 H         202.5635  229.7735  167.2883 H        36        0    0.0000
    552 H         203.2577  229.9902  165.6716 H        36        0    0.0000
    553 H         202.2747  232.1104  167.6343 H        36        0    0.0000
    554 H         204.7773  231.3583  167.4709 H        36        0    0.0000
    555 H         204.8103  232.3641  166.0277 H        36        0    0.0000
    556 H         202.8794  233.0923  164.8695 H        36        0    0.0000
    557 H         201.6093  233.5201  166.0007 H        36        0    0.0000
    558 H         201.7806  231.3520  163.9408 H        36        0    0.0000
    559 H         199.7827  233.2571  164.7489 H        36        0    0.0000
    560 H         199.9012  232.3013  163.2767 H        36        0    0.0000
    561 C         200.8828  228.4246  164.8215 C.3      37        0    0.0000
    562 C         200.2436  229.5363  163.9857 C.3      37        0    0.0000
    563 C         198.9109  229.8903  164.6697 C.3      37        0    0.0000
    564 C         198.6598  231.3963  164.8154 C.3      37        0    0.0000
    565 C         198.9748  229.1759  166.0235 C.3      37        0    0.0000
    566 C         199.7809  227.9017  165.7495 C.3      37        0    0.0000
    567 C         198.9259  226.7919  165.1089 C.3      37        0    0.0000
    568 H         201.3348  227.6513  164.1931 H        37        0    0.0000
    569 H         201.6885  228.8577  165.4281 H        37        0    0.0000
    570 H         200.9255  230.3908  163.9143 H        37        0    0.0000
    571 H         200.0558  229.1856  162.9642 H        37        0    0.0000
    572 H         198.0940  229.4427  164.0858 H        37        0    0.0000
    573 H         197.8033  231.6834  164.1938 H        37        0    0.0000
    574 H         198.3976  231.6424  165.8508 H        37        0    0.0000
    575 H         197.9777  228.9699  166.4259 H        37        0    0.0000
    576 H         199.5071  229.7948  166.7573 H        37        0    0.0000
    577 H         200.2155  227.5325  166.6871 H        37        0    0.0000
    578 H         198.6403  227.0542  164.0842 H        37        0    0.0000
    579 H         197.9964  226.6741  165.6784 H        37        0    0.0000
    580 H         199.4447  225.8333  165.1045 H        37        0    0.0000
    581 H         184.3440  190.9464   65.5730 H         0        0    0.0000
@<TRIPOS>BOND
     1     1     2      1
     2     1     6      1
     3     1     8      1
     4     1     9      1
     5     2     3      1
     6     2    10      1
     7     2    11      1
     8     3     4      1
     9     3     5      1
    10     3    12      1
    11     4    13      1
    12     4    14      1
    13     4   581      H
    14     5     6      1
    15     5    15      1
    16     5    16      1
    17     6     7      1
    18     6    17      1
    19     7    18      1
    20     7    19      1
    21     7    23      1
    22    20    21      1
    23    20    25      1
    24    20    27      1
    25    20    28      1
    26    21    22      1
    27    21    29      1
    28    21    30      1
    29    22    23      1
    30    22    24      1
    31    22    31      1
    32    23    32      1
    33    23    33      1
    34    24    25      1
    35    24    34      1
    36    24    35      1
    37    25    26      1
    38    25    36      1
    39    26    37      1
    40    26    38      1
    41    26    39      1
    42    39    40      1
    43    39    41      1
    44    39    42      1
    45    40    43      1
    46    40    44      1
    47    40    48      1
    48    45    46      1
    49    45    50      1
    50    45    52      1
    51    45    53      1
    52    46    47      1
    53    46    54      1
    54    46    55      1
    55    47    48      1
    56    47    49      1
    57    47    56      1
    58    48    57      1
    59    48    58      1
    60    49    50      1
    61    49    59      1
    62    49    60      1
    63    50    51      1
    64    50    61      1
    65    51    62      1
    66    51    63      1
    67    51    64      1
    68    64    65      1
    69    64    66      1
    70    64    67      1
    71    65    68      1
    72    65    69      1
    73    65    73      1
    74    70    71      1
    75    70    75      1
    76    70    77      1
    77    70    78      1
    78    71    72      1
    79    71    79      1
    80    71    80      1
    81    72    73      1
    82    72    74      1
    83    72    81      1
    84    73    82      1
    85    73    83      1
    86    74    75      1
    87    74    84      1
    88    74    85      1
    89    75    76      1
    90    75    86      1
    91    76    87      1
    92    76    88      1
    93    76    92      1
    94    89    90      1
    95    89    94      1
    96    89    96      1
    97    89    97      1
    98    90    91      1
    99    90    98      1
   100    90    99      1
   101    91    92      1
   102    91    93      1
   103    91   100      1
   104    92   101      1
   105    92   102      1
   106    93    94      1
   107    93   103      1
   108    93   104      1
   109    94    95      1
   110    94   105      1
   111    95   106      1
   112    95   107      1
   113    95   108      1
   114   108   109      1
   115   108   110      1
   116   108   111      1
   117   109   112      1
   118   109   113      1
   119   109   114      1
   120   114   115      1
   121   114   116      1
   122   114   117      1
   123   115   118      1
   124   115   119      1
   125   115   120      1
   126   120   121      1
   127   120   122      1
   128   120   123      1
   129   121   124      1
   130   121   125      1
   131   121   126      1
   132   126   127      1
   133   126   128      1
   134   126   129      1
   135   127   130      1
   136   127   131      1
   137   127   135      1
   138   132   133      1
   139   132   137      1
   140   132   139      1
   141   132   140      1
   142   133   134      1
   143   133   141      1
   144   133   142      1
   145   134   135      1
   146   134   136      1
   147   134   143      1
   148   135   144      1
   149   135   145      1
   150   136   137      1
   151   136   146      1
   152   136   147      1
   153   137   138      1
   154   137   148      1
   155   138   149      1
   156   138   150      1
   157   138   154      1
   158   151   152      1
   159   151   156      1
   160   151   158      1
   161   151   159      1
   162   152   153      1
   163   152   160      1
   164   152   161      1
   165   153   154      1
   166   153   155      1
   167   153   162      1
   168   154   163      1
   169   154   164      1
   170   155   156      1
   171   155   165      1
   172   155   166      1
   173   156   157      1
   174   156   167      1
   175   157   168      1
   176   157   169      1
   177   157   170      1
   178   170   171      1
   179   170   172      1
   180   170   173      1
   181   171   174      1
   182   171   175      1
   183   171   179      1
   184   176   177      1
   185   176   181      1
   186   176   183      1
   187   176   184      1
   188   177   178      1
   189   177   185      1
   190   177   186      1
   191   178   179      1
   192   178   180      1
   193   178   187      1
   194   179   188      1
   195   179   189      1
   196   180   181      1
   197   180   190      1
   198   180   191      1
   199   181   182      1
   200   181   192      1
   201   182   193      1
   202   182   194      1
   203   182   195      1
   204   195   196      1
   205   195   197      1
   206   195   198      1
   207   196   199      1
   208   196   200      1
   209   196   204      1
   210   201   202      1
   211   201   206      1
   212   201   208      1
   213   201   209      1
   214   202   203      1
   215   202   210      1
   216   202   211      1
   217   203   204      1
   218   203   205      1
   219   203   212      1
   220   204   213      1
   221   204   214      1
   222   205   206      1
   223   205   215      1
   224   205   216      1
   225   206   207      1
   226   206   217      1
   227   207   218      1
   228   207   219      1
   229   207   223      1
   230   220   221      1
   231   220   225      1
   232   220   227      1
   233   220   228      1
   234   221   222      1
   235   221   229      1
   236   221   230      1
   237   222   223      1
   238   222   224      1
   239   222   231      1
   240   223   232      1
   241   223   233      1
   242   224   225      1
   243   224   234      1
   244   224   235      1
   245   225   226      1
   246   225   236      1
   247   226   237      1
   248   226   238      1
   249   226   242      1
   250   239   240      1
   251   239   244      1
   252   239   246      1
   253   239   247      1
   254   240   241      1
   255   240   248      1
   256   240   249      1
   257   241   242      1
   258   241   243      1
   259   241   250      1
   260   242   251      1
   261   242   252      1
   262   243   244      1
   263   243   253      1
   264   243   254      1
   265   244   245      1
   266   244   255      1
   267   245   256      1
   268   245   257      1
   269   245   261      1
   270   258   259      1
   271   258   263      1
   272   258   265      1
   273   258   266      1
   274   259   260      1
   275   259   267      1
   276   259   268      1
   277   260   261      1
   278   260   262      1
   279   260   269      1
   280   261   270      1
   281   261   271      1
   282   262   263      1
   283   262   272      1
   284   262   273      1
   285   263   264      1
   286   263   274      1
   287   264   275      1
   288   264   276      1
   289   264   277      1
   290   277   278      1
   291   277   279      1
   292   277   280      1
   293   278   281      1
   294   278   282      1
   295   278   286      1
   296   283   284      1
   297   283   288      1
   298   283   290      1
   299   283   291      1
   300   284   285      1
   301   284   292      1
   302   284   293      1
   303   285   286      1
   304   285   287      1
   305   285   294      1
   306   286   295      1
   307   286   296      1
   308   287   288      1
   309   287   297      1
   310   287   298      1
   311   288   289      1
   312   288   299      1
   313   289   300      1
   314   289   301      1
   315   289   305      1
   316   302   303      1
   317   302   307      1
   318   302   309      1
   319   302   310      1
   320   303   304      1
   321   303   311      1
   322   303   312      1
   323   304   305      1
   324   304   306      1
   325   304   313      1
   326   305   314      1
   327   305   315      1
   328   306   307      1
   329   306   316      1
   330   306   317      1
   331   307   308      1
   332   307   318      1
   333   308   319      1
   334   308   320      1
   335   308   324      1
   336   321   322      1
   337   321   326      1
   338   321   328      1
   339   321   329      1
   340   322   323      1
   341   322   330      1
   342   322   331      1
   343   323   324      1
   344   323   325      1
   345   323   332      1
   346   324   333      1
   347   324   334      1
   348   325   326      1
   349   325   335      1
   350   325   336      1
   351   326   327      1
   352   326   337      1
   353   327   338      1
   354   327   339      1
   355   327   343      1
   356   340   341      1
   357   340   345      1
   358   340   347      1
   359   340   348      1
   360   341   342      1
   361   341   349      1
   362   341   350      1
   363   342   343      1
   364   342   344      1
   365   342   351      1
   366   343   352      1
   367   343   353      1
   368   344   345      1
   369   344   354      1
   370   344   355      1
   371   345   346      1
   372   345   356      1
   373   346   357      1
   374   346   358      1
   375   346   362      1
   376   359   360      1
   377   359   364      1
   378   359   366      1
   379   359   367      1
   380   360   361      1
   381   360   368      1
   382   360   369      1
   383   361   362      1
   384   361   363      1
   385   361   370      1
   386   362   371      1
   387   362   372      1
   388   363   364      1
   389   363   373      1
   390   363   374      1
   391   364   365      1
   392   364   375      1
   393   365   376      1
   394   365   377      1
   395   365   381      1
   396   378   379      1
   397   378   383      1
   398   378   385      1
   399   378   386      1
   400   379   380      1
   401   379   387      1
   402   379   388      1
   403   380   381      1
   404   380   382      1
   405   380   389      1
   406   381   390      1
   407   381   391      1
   408   382   383      1
   409   382   392      1
   410   382   393      1
   411   383   384      1
   412   383   394      1
   413   384   395      1
   414   384   396      1
   415   384   397      1
   416   397   398      1
   417   397   399      1
   418   397   400      1
   419   398   401      1
   420   398   402      1
   421   398   406      1
   422   403   404      1
   423   403   408      1
   424   403   410      1
   425   403   411      1
   426   404   405      1
   427   404   412      1
   428   404   413      1
   429   405   406      1
   430   405   407      1
   431   405   414      1
   432   406   415      1
   433   406   416      1
   434   407   408      1
   435   407   417      1
   436   407   418      1
   437   408   409      1
   438   408   419      1
   439   409   420      1
   440   409   421      1
   441   409   425      1
   442   422   423      1
   443   422   427      1
   444   422   429      1
   445   422   430      1
   446   423   424      1
   447   423   431      1
   448   423   432      1
   449   424   425      1
   450   424   426      1
   451   424   433      1
   452   425   434      1
   453   425   435      1
   454   426   427      1
   455   426   436      1
   456   426   437      1
   457   427   428      1
   458   427   438      1
   459   428   439      1
   460   428   440      1
   461   428   444      1
   462   441   442      1
   463   441   446      1
   464   441   448      1
   465   441   449      1
   466   442   443      1
   467   442   450      1
   468   442   451      1
   469   443   444      1
   470   443   445      1
   471   443   452      1
   472   444   453      1
   473   444   454      1
   474   445   446      1
   475   445   455      1
   476   445   456      1
   477   446   447      1
   478   446   457      1
   479   447   458      1
   480   447   459      1
   481   447   463      1
   482   460   461      1
   483   460   465      1
   484   460   467      1
   485   460   468      1
   486   461   462      1
   487   461   469      1
   488   461   470      1
   489   462   463      1
   490   462   464      1
   491   462   471      1
   492   463   472      1
   493   463   473      1
   494   464   465      1
   495   464   474      1
   496   464   475      1
   497   465   466      1
   498   465   476      1
   499   466   477      1
   500   466   478      1
   501   466   479      1
   502   479   480      1
   503   479   481      1
   504   479   482      1
   505   480   483      1
   506   480   484      1
   507   480   488      1
   508   485   486      1
   509   485   490      1
   510   485   492      1
   511   485   493      1
   512   486   487      1
   513   486   494      1
   514   486   495      1
   515   487   488      1
   516   487   489      1
   517   487   496      1
   518   488   497      1
   519   488   498      1
   520   489   490      1
   521   489   499      1
   522   489   500      1
   523   490   491      1
   524   490   501      1
   525   491   502      1
   526   491   503      1
   527   491   507      1
   528   504   505      1
   529   504   509      1
   530   504   511      1
   531   504   512      1
   532   505   506      1
   533   505   513      1
   534   505   514      1
   535   506   507      1
   536   506   508      1
   537   506   515      1
   538   507   516      1
   539   507   517      1
   540   508   509      1
   541   508   518      1
   542   508   519      1
   543   509   510      1
   544   509   520      1
   545   510   521      1
   546   510   522      1
   547   510   526      1
   548   523   524      1
   549   523   528      1
   550   523   530      1
   551   523   531      1
   552   524   525      1
   553   524   532      1
   554   524   533      1
   555   525   526      1
   556   525   527      1
   557   525   534      1
   558   526   535      1
   559   526   536      1
   560   527   528      1
   561   527   537      1
   562   527   538      1
   563   528   529      1
   564   528   539      1
   565   529   540      1
   566   529   541      1
   567   529   545      1
   568   542   543      1
   569   542   547      1
   570   542   549      1
   571   542   550      1
   572   543   544      1
   573   543   551      1
   574   543   552      1
   575   544   545      1
   576   544   546      1
   577   544   553      1
   578   545   554      1
   579   545   555      1
   580   546   547      1
   581   546   556      1
   582   546   557      1
   583   547   548      1
   584   547   558      1
   585   548   559      1
   586   548   560      1
   587   548   564      1
   588   561   562      1
   589   561   566      1
   590   561   568      1
   591   561   569      1
   592   562   563      1
   593   562   570      1
   594   562   571      1
   595   563   564      1
   596   563   565      1
   597   563   572      1
   598   564   573      1
   599   564   574      1
   600   565   566      1
   601   565   575      1
   602   565   576      1
   603   566   567      1
   604   566   577      1
   605   567   578      1
   606   567   579      1
   607   567   580      H
