###
### Created by PolyChef-cpp17 on Wed Feb 26 21:14:13 2025
###

@<TRIPOS>MOLECULE
NO_INFO
1261 1319 1 0 0
SMALL
USER_CHARGES


@<TRIPOS>ATOM
      1 C         142.4351  251.7936  149.6878 C.3       0        0    0.0000
      2 C         142.5578  250.8097  148.5327 C.3       0        0    0.0000
      3 C         141.1151  250.3328  148.3354 C.3       0        0    0.0000
      4 C         140.9534  249.0474  147.5183 C.3       0        0    0.0000
      5 C         140.5005  250.3036  149.7485 C.3       0        0    0.0000
      6 C         141.4848  251.0739  150.6503 C.3       0        0    0.0000
      7 C         140.8431  251.9578  151.7242 C.3       0        0    0.0000
      8 H         143.4047  252.0056  150.1489 H         0        0    0.0000
      9 H         142.0167  252.7391  149.3256 H         0        0    0.0000
     10 H         142.9608  251.2841  147.6326 H         0        0    0.0000
     11 H         143.2279  249.9900  148.8144 H         0        0    0.0000
     12 H         140.5907  251.1246  147.7792 H         0        0    0.0000
     13 H         140.9719  248.1867  148.1974 H         0        0    0.0000
     14 H         139.9674  249.0491  147.0387 H         0        0    0.0000
     15 H         140.3692  249.2870  150.1347 H         0        0    0.0000
     16 H         139.5031  250.7556  149.7233 H         0        0    0.0000
     17 H         142.0822  250.3188  151.1832 H         0        0    0.0000
     18 H         141.5220  252.0287  152.5823 H         0        0    0.0000
     19 H         140.7270  252.9741  151.3296 H         0        0    0.0000
     20 C         138.5574  248.4128  154.1524 C.3       1        0    0.0000
     21 C         139.6074  249.4975  153.8993 C.3       1        0    0.0000
     22 C         139.4443  249.9341  152.4324 C.3       1        0    0.0000
     23 C         139.4560  251.4535  152.2238 C.3       1        0    0.0000
     24 C         138.1252  249.2942  151.9878 C.3       1        0    0.0000
     25 C         138.0501  247.9801  152.7725 C.3       1        0    0.0000
     26 C         138.9027  246.8661  152.1360 C.3       1        0    0.0000
     27 H         138.9576  247.5908  154.7536 H         1        0    0.0000
     28 H         137.7265  248.8513  154.7199 H         1        0    0.0000
     29 H         139.4716  250.3229  154.6067 H         1        0    0.0000
     30 H         140.6154  249.0971  154.0585 H         1        0    0.0000
     31 H         140.2573  249.4827  151.8458 H         1        0    0.0000
     32 H         138.6984  251.7235  151.4785 H         1        0    0.0000
     33 H         139.1861  251.9695  153.1525 H         1        0    0.0000
     34 H         138.0866  249.1450  150.9038 H         1        0    0.0000
     35 H         137.2776  249.9345  152.2646 H         1        0    0.0000
     36 H         137.0058  247.6491  152.8368 H         1        0    0.0000
     37 H         139.4353  246.2897  152.9005 H         1        0    0.0000
     38 H         139.6644  247.3161  151.4881 H         1        0    0.0000
     39 C         138.0403  245.9013  151.2715 C.3       2        0    0.0000
     40 C         138.3268  244.4140  151.5226 C.3       2        0    0.0000
     41 H         136.9917  246.0947  151.5315 H         2        0    0.0000
     42 H         138.1522  246.1556  150.2110 H         2        0    0.0000
     43 H         139.1087  244.0395  150.8514 H         2        0    0.0000
     44 H         138.7140  244.3096  152.5442 H         2        0    0.0000
     45 C         136.7887  240.0045  152.6525 C.3       3        0    0.0000
     46 C         137.5265  241.3410  152.7633 C.3       3        0    0.0000
     47 C         137.4368  242.0093  151.3796 C.3       3        0    0.0000
     48 C         137.0600  243.4953  151.4225 C.3       3        0    0.0000
     49 C         136.4090  241.1686  150.6154 C.3       3        0    0.0000
     50 C         136.5966  239.7463  151.1541 C.3       3        0    0.0000
     51 C         137.7938  239.0257  150.5057 C.3       3        0    0.0000
     52 H         137.3187  239.2022  153.1745 H         3        0    0.0000
     53 H         135.8051  240.1035  153.1294 H         3        0    0.0000
     54 H         137.0828  241.9493  153.5592 H         3        0    0.0000
     55 H         138.5771  241.1759  153.0294 H         3        0    0.0000
     56 H         138.4092  241.8975  150.8789 H         3        0    0.0000
     57 H         136.5114  243.7574  150.5100 H         3        0    0.0000
     58 H         136.3888  243.6960  152.2655 H         3        0    0.0000
     59 H         136.5495  241.2348  149.5316 H         3        0    0.0000
     60 H         135.3912  241.5133  150.8393 H         3        0    0.0000
     61 H         135.6827  239.1640  150.9816 H         3        0    0.0000
     62 H         138.7441  239.4151  150.8872 H         3        0    0.0000
     63 H         137.7860  239.2077  149.4244 H         3        0    0.0000
     64 C         137.7372  237.4879  150.7381 C.3       4        0    0.0000
     65 C         139.0577  236.8831  151.2357 C.3       4        0    0.0000
     66 H         136.9716  237.3113  151.5045 H         4        0    0.0000
     67 H         137.3885  236.9891  149.8262 H         4        0    0.0000
     68 H         139.8007  236.8307  150.4312 H         4        0    0.0000
     69 H         139.4712  237.5517  152.0016 H         4        0    0.0000
     70 C         141.3885  233.4601  151.1668 C.3       5        0    0.0000
     71 C         140.5199  234.3667  150.2906 C.3       5        0    0.0000
     72 C         139.1094  234.3317  150.8891 C.3       5        0    0.0000
     73 C         138.9012  235.4727  151.9028 C.3       5        0    0.0000
     74 C         139.0531  232.9242  151.4966 C.3       5        0    0.0000
     75 C         140.4351  232.7257  152.1241 C.3       5        0    0.0000
     76 C         140.7695  231.2456  152.3417 C.3       5        0    0.0000
     77 H         141.9593  232.7708  150.5343 H         5        0    0.0000
     78 H         142.1130  234.0536  151.7361 H         5        0    0.0000
     79 H         140.4921  233.9543  149.2740 H         5        0    0.0000
     80 H         140.9317  235.3781  150.2145 H         5        0    0.0000
     81 H         138.3636  234.4255  150.0894 H         5        0    0.0000
     82 H         139.6474  235.3855  152.7018 H         5        0    0.0000
     83 H         137.9195  235.4029  152.3834 H         5        0    0.0000
     84 H         138.8893  232.1898  150.6971 H         5        0    0.0000
     85 H         138.2506  232.7952  152.2290 H         5        0    0.0000
     86 H         140.4529  233.2423  153.0941 H         5        0    0.0000
     87 H         141.1155  231.0798  153.3686 H         5        0    0.0000
     88 H         141.5930  230.9570  151.6780 H         5        0    0.0000
     89 C         140.4157  228.5414  148.8431 C.3       6        0    0.0000
     90 C         140.7590  229.5373  149.9540 C.3       6        0    0.0000
     91 C         139.4224  229.9794  150.5642 C.3       6        0    0.0000
     92 C         139.5478  230.3276  152.0500 C.3       6        0    0.0000
     93 C         138.4938  228.7988  150.2612 C.3       6        0    0.0000
     94 C         138.8860  228.4233  148.8283 C.3       6        0    0.0000
     95 C         138.4136  227.0375  148.3798 C.3       6        0    0.0000
     96 H         140.7929  228.8795  147.8719 H         6        0    0.0000
     97 H         140.8906  227.5767  149.0582 H         6        0    0.0000
     98 H         141.3157  230.3961  149.5636 H         6        0    0.0000
     99 H         141.3977  229.0475  150.6987 H         6        0    0.0000
    100 H         139.0656  230.8582  150.0074 H         6        0    0.0000
    101 H         139.6594  229.4037  152.6301 H         6        0    0.0000
    102 H         138.6321  230.8149  152.4049 H         6        0    0.0000
    103 H         137.4383  229.0789  150.3362 H         6        0    0.0000
    104 H         138.6797  227.9657  150.9505 H         6        0    0.0000
    105 H         138.4899  229.1881  148.1443 H         6        0    0.0000
    106 H         138.4981  226.9409  147.2911 H         6        0    0.0000
    107 H         137.3514  226.9200  148.6261 H         6        0    0.0000
    108 C         139.2089  225.8920  149.0640 C.3       7        0    0.0000
    109 C         139.0911  224.5378  148.3500 C.3       7        0    0.0000
    110 H         140.2650  226.1906  149.0555 H         7        0    0.0000
    111 H         138.9135  225.8148  150.1169 H         7        0    0.0000
    112 H         138.0552  224.1790  148.3438 H         7        0    0.0000
    113 H         139.3801  224.6799  147.3008 H         7        0    0.0000
    114 C         140.0318  223.4266  148.9322 C.3       8        0    0.0000
    115 C         139.4846  222.0007  148.7749 C.3       8        0    0.0000
    116 H         140.1403  223.6333  150.0046 H         8        0    0.0000
    117 H         141.0315  223.5211  148.4921 H         8        0    0.0000
    118 H         138.3899  222.0598  148.7243 H         8        0    0.0000
    119 H         139.8179  221.5470  147.8341 H         8        0    0.0000
    120 C         139.8317  221.0495  149.9722 C.3       9        0    0.0000
    121 C         138.9014  219.8340  150.0933 C.3       9        0    0.0000
    122 H         140.8513  220.6819  149.7995 H         9        0    0.0000
    123 H         139.8598  221.6248  150.9050 H         9        0    0.0000
    124 H         137.9256  220.1180  150.5045 H         9        0    0.0000
    125 H         138.7155  219.4458  149.0837 H         9        0    0.0000
    126 C         139.5034  218.6518  150.9291 C.3      10        0    0.0000
    127 C         138.6591  217.3698  150.8941 C.3      10        0    0.0000
    128 H         139.5578  218.9953  151.9701 H        10        0    0.0000
    129 H         140.5339  218.4596  150.6082 H        10        0    0.0000
    130 H         137.7235  217.5634  151.4342 H        10        0    0.0000
    131 H         138.3793  217.1043  149.8678 H        10        0    0.0000
    132 C         140.6646  217.2271  154.9831 C.3      11        0    0.0000
    133 C         140.2708  217.5558  153.5499 C.3      11        0    0.0000
    134 C         139.5206  216.2964  153.1042 C.3      11        0    0.0000
    135 C         139.3382  216.1405  151.5914 C.3      11        0    0.0000
    136 C         140.2340  215.1275  153.8115 C.3      11        0    0.0000
    137 C         141.1346  215.7722  154.8833 C.3      11        0    0.0000
    138 C         141.2228  215.0170  156.2130 C.3      11        0    0.0000
    139 H         141.4535  217.8896  155.3526 H        11        0    0.0000
    140 H         139.7944  217.3349  155.6400 H        11        0    0.0000
    141 H         139.6427  218.4503  153.4934 H        11        0    0.0000
    142 H         141.1704  217.7335  152.9504 H        11        0    0.0000
    143 H         138.5102  216.3575  153.5360 H        11        0    0.0000
    144 H         140.3174  215.9695  151.1285 H        11        0    0.0000
    145 H         138.7357  215.2461  151.3933 H        11        0    0.0000
    146 H         140.8475  214.5283  153.1301 H        11        0    0.0000
    147 H         139.4884  214.4463  154.2355 H        11        0    0.0000
    148 H         142.1536  215.7940  154.4682 H        11        0    0.0000
    149 H         142.0505  215.4274  156.8035 H        11        0    0.0000
    150 H         140.3066  215.1957  156.7881 H        11        0    0.0000
    151 C         144.3371  212.8573  153.7445 C.3      12        0    0.0000
    152 C         143.4677  213.8057  154.5741 C.3      12        0    0.0000
    153 C         142.1116  213.1084  154.7448 C.3      12        0    0.0000
    154 C         141.4283  213.4796  156.0639 C.3      12        0    0.0000
    155 C         142.4633  211.6237  154.6035 C.3      12        0    0.0000
    156 C         143.4702  211.6264  153.4485 C.3      12        0    0.0000
    157 C         144.3007  210.3461  153.3232 C.3      12        0    0.0000
    158 H         144.6748  213.3321  152.8170 H        12        0    0.0000
    159 H         145.2331  212.5888  154.3169 H        12        0    0.0000
    160 H         143.3507  214.7764  154.0803 H        12        0    0.0000
    161 H         143.9490  213.9896  155.5421 H        12        0    0.0000
    162 H         141.4686  213.3984  153.9010 H        12        0    0.0000
    163 H         142.0422  213.1269  156.9013 H        12        0    0.0000
    164 H         140.4599  212.9723  156.1463 H        12        0    0.0000
    165 H         141.5825  211.0146  154.3767 H        12        0    0.0000
    166 H         142.9215  211.2392  155.5233 H        12        0    0.0000
    167 H         142.9268  211.8078  152.5098 H        12        0    0.0000
    168 H         145.3497  210.5476  153.5701 H        12        0    0.0000
    169 H         144.2814  210.0026  152.2819 H        12        0    0.0000
    170 C         143.7663  209.2038  154.2300 C.3      13        0    0.0000
    171 C         144.4674  207.8552  154.0132 C.3      13        0    0.0000
    172 H         143.9408  209.5153  155.2679 H        13        0    0.0000
    173 H         142.6805  209.1130  154.1085 H        13        0    0.0000
    174 H         144.7009  207.6927  152.9544 H        13        0    0.0000
    175 H         145.4268  207.8808  154.5456 H        13        0    0.0000
    176 C         143.8078  203.8095  152.2234 C.3      14        0    0.0000
    177 C         144.3850  205.1734  152.5994 C.3      14        0    0.0000
    178 C         144.2810  205.2895  154.1300 C.3      14        0    0.0000
    179 C         143.6714  206.6259  154.5734 C.3      14        0    0.0000
    180 C         143.4703  204.0577  154.5614 C.3      14        0    0.0000
    181 C         143.7947  202.9855  153.5135 C.3      14        0    0.0000
    182 C         145.1354  202.2642  153.7433 C.3      14        0    0.0000
    183 H         142.7773  203.9454  151.8711 H        14        0    0.0000
    184 H         144.3673  203.3357  151.4108 H        14        0    0.0000
    185 H         143.8507  205.9723  152.0738 H        14        0    0.0000
    186 H         145.4369  205.2362  152.2966 H        14        0    0.0000
    187 H         145.2956  205.2039  154.5442 H        14        0    0.0000
    188 H         143.6294  206.6810  155.6674 H        14        0    0.0000
    189 H         142.6375  206.6894  154.2133 H        14        0    0.0000
    190 H         143.7092  203.7463  155.5829 H        14        0    0.0000
    191 H         142.3954  204.2784  154.5281 H        14        0    0.0000
    192 H         142.9877  202.2431  153.4696 H        14        0    0.0000
    193 H         145.8141  202.8714  154.3518 H        14        0    0.0000
    194 H         145.6327  202.1108  152.7779 H        14        0    0.0000
    195 C         144.9431  200.8732  154.4112 C.3      15        0    0.0000
    196 C         145.9458  199.8106  153.9393 C.3      15        0    0.0000
    197 H         145.0828  201.0178  155.4902 H        15        0    0.0000
    198 H         143.9093  200.5361  154.2715 H        15        0    0.0000
    199 H         146.4697  200.1319  153.0314 H        15        0    0.0000
    200 H         146.7103  199.6943  154.7181 H        15        0    0.0000
    201 C         146.1938  195.4406  151.7178 C.3      16        0    0.0000
    202 C         146.1530  196.9671  151.7685 C.3      16        0    0.0000
    203 C         146.3495  197.3649  153.2416 C.3      16        0    0.0000
    204 C         145.3130  198.3943  153.7110 C.3      16        0    0.0000
    205 C         146.3077  196.0373  154.0141 C.3      16        0    0.0000
    206 C         146.8440  194.9911  153.0288 C.3      16        0    0.0000
    207 C         148.3794  194.9548  152.9212 C.3      16        0    0.0000
    208 H         145.1655  195.0594  151.6753 H        16        0    0.0000
    209 H         146.7122  195.0721  150.8270 H        16        0    0.0000
    210 H         145.2118  197.3382  151.3484 H        16        0    0.0000
    211 H         146.9641  197.3882  151.1627 H        16        0    0.0000
    212 H         147.3548  197.7976  153.3427 H        16        0    0.0000
    213 H         144.8285  198.0535  154.6335 H        16        0    0.0000
    214 H         144.5245  198.4850  152.9543 H        16        0    0.0000
    215 H         146.8819  196.0856  154.9444 H        16        0    0.0000
    216 H         145.2731  195.7834  154.2793 H        16        0    0.0000
    217 H         146.4770  193.9930  153.3001 H        16        0    0.0000
    218 H         148.8085  195.9578  153.0197 H        16        0    0.0000
    219 H         148.6629  194.5892  151.9267 H        16        0    0.0000
    220 C         145.9043  194.3802  156.0782 C.3      17        0    0.0000
    221 C         147.1001  194.9892  155.3413 C.3      17        0    0.0000
    222 C         148.1530  193.8780  155.2370 C.3      17        0    0.0000
    223 C         149.0169  194.0110  153.9798 C.3      17        0    0.0000
    224 C         147.3151  192.5969  155.3033 C.3      17        0    0.0000
    225 C         146.2845  192.9264  156.3884 C.3      17        0    0.0000
    226 C         145.0664  191.9991  156.4141 C.3      17        0    0.0000
    227 H         145.6774  194.9314  156.9970 H        17        0    0.0000
    228 H         145.0152  194.4347  155.4386 H        17        0    0.0000
    229 H         147.4984  195.8588  155.8750 H        17        0    0.0000
    230 H         146.7812  195.3342  154.3505 H        17        0    0.0000
    231 H         148.7917  193.9262  156.1311 H        17        0    0.0000
    232 H         149.1529  193.0213  153.5276 H        17        0    0.0000
    233 H         150.0159  194.3786  154.2419 H        17        0    0.0000
    234 H         147.9217  191.7246  155.5668 H        17        0    0.0000
    235 H         146.8241  192.3983  154.3424 H        17        0    0.0000
    236 H         146.7863  192.9048  157.3668 H        17        0    0.0000
    237 H         144.9487  191.4989  155.4457 H        17        0    0.0000
    238 H         144.1604  192.5959  156.5738 H        17        0    0.0000
    239 C         142.9811  191.4123  160.5049 C.3      18        0    0.0000
    240 C         143.3881  191.9341  159.1247 C.3      18        0    0.0000
    241 C         144.8595  191.5318  158.9184 C.3      18        0    0.0000
    242 C         145.1597  190.9321  157.5392 C.3      18        0    0.0000
    243 C         145.1502  190.5495  160.0576 C.3      18        0    0.0000
    244 C         144.2840  191.0417  161.2219 C.3      18        0    0.0000
    245 C         144.9226  192.2281  161.9688 C.3      18        0    0.0000
    246 H         142.3679  192.1365  161.0496 H        18        0    0.0000
    247 H         142.3723  190.5084  160.3753 H        18        0    0.0000
    248 H         142.7229  191.5230  158.3575 H        18        0    0.0000
    249 H         143.2918  193.0254  159.0858 H        18        0    0.0000
    250 H         145.4851  192.4233  159.0686 H        18        0    0.0000
    251 H         146.1729  190.5129  157.5382 H        18        0    0.0000
    252 H         144.4735  190.1049  157.3238 H        18        0    0.0000
    253 H         146.2159  190.5134  160.3060 H        18        0    0.0000
    254 H         144.8411  189.5348  159.7752 H        18        0    0.0000
    255 H         144.1108  190.2177  161.9258 H        18        0    0.0000
    256 H         144.1712  192.7909  162.5336 H        18        0    0.0000
    257 H         145.3606  192.9224  161.2419 H        18        0    0.0000
    258 C         143.5166  189.3737  164.2161 C.3      19        0    0.0000
    259 C         144.0071  190.8235  164.1985 C.3      19        0    0.0000
    260 C         145.5300  190.7703  163.9814 C.3      19        0    0.0000
    261 C         146.0507  191.7629  162.9346 C.3      19        0    0.0000
    262 C         145.8101  189.3145  163.5950 C.3      19        0    0.0000
    263 C         144.7676  188.5021  164.3708 C.3      19        0    0.0000
    264 C         145.1719  188.2784  165.8403 C.3      19        0    0.0000
    265 H         142.7640  189.2077  164.9928 H        19        0    0.0000
    266 H         143.0395  189.1506  163.2532 H        19        0    0.0000
    267 H         143.4851  191.3864  163.4169 H        19        0    0.0000
    268 H         143.7844  191.3132  165.1537 H        19        0    0.0000
    269 H         146.0228  190.9688  164.9439 H        19        0    0.0000
    270 H         146.4599  192.6446  163.4421 H        19        0    0.0000
    271 H         146.8711  191.3180  162.3597 H        19        0    0.0000
    272 H         146.8383  189.0190  163.8274 H        19        0    0.0000
    273 H         145.6590  189.1694  162.5174 H        19        0    0.0000
    274 H         144.6189  187.5313  163.8811 H        19        0    0.0000
    275 H         144.2922  188.1117  166.4718 H        19        0    0.0000
    276 H         145.6716  189.1770  166.2211 H        19        0    0.0000
    277 C         146.1507  187.0783  165.9939 C.3      20        0    0.0000
    278 C         146.7762  186.9582  167.3909 C.3      20        0    0.0000
    279 H         145.5683  186.1680  165.8022 H        20        0    0.0000
    280 H         146.9206  187.1275  165.2149 H        20        0    0.0000
    281 H         146.0448  186.6031  168.1263 H        20        0    0.0000
    282 H         147.5685  186.2001  167.3452 H        20        0    0.0000
    283 C         146.8080  188.8627  171.4735 C.3      21        0    0.0000
    284 C         146.7076  187.8712  170.3154 C.3      21        0    0.0000
    285 C         147.8842  188.1747  169.3718 C.3      21        0    0.0000
    286 C         147.4439  188.2803  167.9057 C.3      21        0    0.0000
    287 C         148.5124  189.4605  169.9310 C.3      21        0    0.0000
    288 C         148.2374  189.4099  171.4392 C.3      21        0    0.0000
    289 C         149.2102  188.5144  172.2280 C.3      21        0    0.0000
    290 H         146.1022  189.6849  171.2990 H        21        0    0.0000
    291 H         146.5408  188.4052  172.4313 H        21        0    0.0000
    292 H         145.7328  187.9568  169.8228 H        21        0    0.0000
    293 H         146.7908  186.8435  170.6881 H        21        0    0.0000
    294 H         148.6132  187.3577  169.4686 H        21        0    0.0000
    295 H         148.2990  188.5343  167.2685 H        21        0    0.0000
    296 H         146.7192  189.0970  167.8033 H        21        0    0.0000
    297 H         149.5775  189.5351  169.6907 H        21        0    0.0000
    298 H         148.0169  190.3428  169.5052 H        21        0    0.0000
    299 H         148.2555  190.4229  171.8612 H        21        0    0.0000
    300 H         150.0765  188.2355  171.6186 H        21        0    0.0000
    301 H         148.7029  187.5800  172.4972 H        21        0    0.0000
    302 C         147.3314  191.9427  174.1112 C.3      22        0    0.0000
    303 C         147.5615  190.5908  173.4375 C.3      22        0    0.0000
    304 C         148.5376  189.8110  174.3355 C.3      22        0    0.0000
    305 C         149.6952  189.1932  173.5402 C.3      22        0    0.0000
    306 C         148.9812  190.8237  175.4025 C.3      22        0    0.0000
    307 C         147.7890  191.7755  175.5625 C.3      22        0    0.0000
    308 C         146.6613  191.2291  176.4569 C.3      22        0    0.0000
    309 H         147.9597  192.6960  173.6188 H        22        0    0.0000
    310 H         146.2933  192.2772  174.0187 H        22        0    0.0000
    311 H         147.9388  190.7310  172.4186 H        22        0    0.0000
    312 H         146.6162  190.0412  173.3580 H        22        0    0.0000
    313 H         147.9729  189.0072  174.8286 H        22        0    0.0000
    314 H         150.2337  188.4635  174.1560 H        22        0    0.0000
    315 H         150.4144  189.9787  173.2785 H        22        0    0.0000
    316 H         149.2690  190.3344  176.3382 H        22        0    0.0000
    317 H         149.8504  191.3934  175.0489 H        22        0    0.0000
    318 H         148.1271  192.7422  175.9570 H        22        0    0.0000
    319 H         146.2060  190.3337  176.0202 H        22        0    0.0000
    320 H         145.8652  191.9798  176.5330 H        22        0    0.0000
    321 C         149.7225  193.4050  178.8826 C.3      23        0    0.0000
    322 C         148.8857  192.8208  177.7418 C.3      23        0    0.0000
    323 C         148.6135  191.3498  178.1042 C.3      23        0    0.0000
    324 C         147.1594  190.9096  177.8949 C.3      23        0    0.0000
    325 C         149.0551  191.2287  179.5663 C.3      23        0    0.0000
    326 C         150.2255  192.2090  179.6983 C.3      23        0    0.0000
    327 C         151.5458  191.6232  179.1627 C.3      23        0    0.0000
    328 H         150.5217  194.0534  178.5108 H        23        0    0.0000
    329 H         149.0739  194.0245  179.5151 H        23        0    0.0000
    330 H         147.9674  193.4045  177.6136 H        23        0    0.0000
    331 H         149.4384  192.8750  176.7967 H        23        0    0.0000
    332 H         149.2739  190.7166  177.4947 H        23        0    0.0000
    333 H         147.0802  189.8282  178.0583 H        23        0    0.0000
    334 H         146.5040  191.3908  178.6300 H        23        0    0.0000
    335 H         149.3291  190.2015  179.8280 H        23        0    0.0000
    336 H         148.2427  191.5363  180.2374 H        23        0    0.0000
    337 H         150.3518  192.4916  180.7511 H        23        0    0.0000
    338 H         152.1090  192.3715  178.5942 H        23        0    0.0000
    339 H         151.3253  190.7992  178.4737 H        23        0    0.0000
    340 C         149.7381  190.1453  182.8192 C.3      24        0    0.0000
    341 C         150.1499  190.5877  181.4220 C.3      24        0    0.0000
    342 C         151.6645  190.3560  181.4227 C.3      24        0    0.0000
    343 C         152.4391  191.0689  180.3101 C.3      24        0    0.0000
    344 C         152.1227  190.6731  182.8597 C.3      24        0    0.0000
    345 C         150.8357  190.7445  183.7046 C.3      24        0    0.0000
    346 C         150.9378  190.1548  185.1146 C.3      24        0    0.0000
    347 H         148.7442  190.5158  183.0889 H        24        0    0.0000
    348 H         149.7188  189.0511  182.8702 H        24        0    0.0000
    349 H         149.6453  190.0065  180.6439 H        24        0    0.0000
    350 H         149.8944  191.6432  181.2777 H        24        0    0.0000
    351 H         151.8222  189.2774  181.2716 H        24        0    0.0000
    352 H         153.0085  191.8987  180.7454 H        24        0    0.0000
    353 H         153.1718  190.3746  179.8820 H        24        0    0.0000
    354 H         152.6628  191.6230  182.9345 H        24        0    0.0000
    355 H         152.8148  189.8965  183.2029 H        24        0    0.0000
    356 H         150.5981  191.8118  183.8288 H        24        0    0.0000
    357 H         150.2259  190.6698  185.7705 H        24        0    0.0000
    358 H         150.6343  189.1016  185.0855 H        24        0    0.0000
    359 C         153.3784  186.8212  186.9498 C.3      25        0    0.0000
    360 C         152.6738  187.7379  185.9615 C.3      25        0    0.0000
    361 C         152.6599  189.0826  186.6913 C.3      25        0    0.0000
    362 C         152.3590  190.2488  185.7467 C.3      25        0    0.0000
    363 C         154.0398  189.1443  187.3714 C.3      25        0    0.0000
    364 C         154.5279  187.6853  187.4836 C.3      25        0    0.0000
    365 C         155.0705  187.2767  188.8590 C.3      25        0    0.0000
    366 H         153.7425  185.9068  186.4709 H        25        0    0.0000
    367 H         152.6792  186.5292  187.7408 H        25        0    0.0000
    368 H         153.2455  187.8003  185.0275 H        25        0    0.0000
    369 H         151.6655  187.3858  185.7232 H        25        0    0.0000
    370 H         151.8917  189.0398  187.4772 H        25        0    0.0000
    371 H         152.4547  191.2020  186.2801 H        25        0    0.0000
    372 H         153.1024  190.2634  184.9407 H        25        0    0.0000
    373 H         154.7554  189.7144  186.7659 H        25        0    0.0000
    374 H         153.9710  189.6500  188.3403 H        25        0    0.0000
    375 H         155.3644  187.5792  186.7768 H        25        0    0.0000
    376 H         154.9076  186.2021  189.0036 H        25        0    0.0000
    377 H         154.4916  187.7895  189.6364 H        25        0    0.0000
    378 C         158.9519  187.5556  186.2203 C.3      26        0    0.0000
    379 C         157.4862  187.5146  186.6595 C.3      26        0    0.0000
    380 C         157.4624  186.8616  188.0531 C.3      26        0    0.0000
    381 C         156.5792  187.5902  189.0735 C.3      26        0    0.0000
    382 C         158.9332  186.8187  188.4799 C.3      26        0    0.0000
    383 C         159.7087  186.6234  187.1727 C.3      26        0    0.0000
    384 C         159.7135  185.1552  186.7062 C.3      26        0    0.0000
    385 H         159.0680  187.2962  185.1637 H        26        0    0.0000
    386 H         159.3291  188.5789  186.3435 H        26        0    0.0000
    387 H         157.0656  188.5262  186.6561 H        26        0    0.0000
    388 H         156.8943  186.9155  185.9577 H        26        0    0.0000
    389 H         157.1086  185.8266  187.9430 H        26        0    0.0000
    390 H         156.8593  187.2760  190.0861 H        26        0    0.0000
    391 H         156.7446  188.6724  189.0195 H        26        0    0.0000
    392 H         159.1251  186.0263  189.2107 H        26        0    0.0000
    393 H         159.2255  187.7716  188.9398 H        26        0    0.0000
    394 H         160.7422  186.9686  187.3029 H        26        0    0.0000
    395 H         160.0140  185.0748  185.6556 H        26        0    0.0000
    396 H         158.6985  184.7468  186.7794 H        26        0    0.0000
    397 C         160.6538  184.2748  187.5794 C.3      27        0    0.0000
    398 C         160.0093  182.9705  188.0701 C.3      27        0    0.0000
    399 H         161.5159  184.0136  186.9524 H        27        0    0.0000
    400 H         161.0427  184.8669  188.4161 H        27        0    0.0000
    401 H         158.9429  183.1084  188.2843 H        27        0    0.0000
    402 H         160.0737  182.2330  187.2598 H        27        0    0.0000
    403 C         163.7199  184.6017  189.7973 C.3      28        0    0.0000
    404 C         162.5007  184.1919  188.9853 C.3      28        0    0.0000
    405 C         162.1735  182.7893  189.5130 C.3      28        0    0.0000
    406 C         160.7208  182.3375  189.3158 C.3      28        0    0.0000
    407 C         162.6833  182.7618  190.9687 C.3      28        0    0.0000
    408 C         163.3712  184.1186  191.2066 C.3      28        0    0.0000
    409 C         164.5998  184.0624  192.1178 C.3      28        0    0.0000
    410 H         164.6166  184.0977  189.4166 H        28        0    0.0000
    411 H         163.8923  185.6817  189.7608 H        28        0    0.0000
    412 H         161.6859  184.9015  189.1649 H        28        0    0.0000
    413 H         162.7087  184.1862  187.9107 H        28        0    0.0000
    414 H         162.7974  182.0802  188.9488 H        28        0    0.0000
    415 H         160.6983  181.2458  189.2156 H        28        0    0.0000
    416 H         160.1443  182.5822  190.2158 H        28        0    0.0000
    417 H         163.3921  181.9322  191.0829 H        28        0    0.0000
    418 H         161.8850  182.5996  191.7005 H        28        0    0.0000
    419 H         162.6293  184.8091  191.6335 H        28        0    0.0000
    420 H         165.3425  184.8027  191.7976 H        28        0    0.0000
    421 H         164.3061  184.3329  193.1391 H        28        0    0.0000
    422 C         169.0255  183.0727  192.4263 C.3      29        0    0.0000
    423 C         167.6640  183.6042  192.0005 C.3      29        0    0.0000
    424 C         166.6910  182.6401  192.6870 C.3      29        0    0.0000
    425 C         165.2586  182.6546  192.1445 C.3      29        0    0.0000
    426 C         167.3954  181.2695  192.6663 C.3      29        0    0.0000
    427 C         168.8604  181.5562  192.2829 C.3      29        0    0.0000
    428 C         169.9107  180.7091  193.0079 C.3      29        0    0.0000
    429 H         169.8313  183.4602  191.7951 H        29        0    0.0000
    430 H         169.2314  183.3689  193.4608 H        29        0    0.0000
    431 H         167.5112  184.6397  192.3202 H        29        0    0.0000
    432 H         167.5779  183.5689  190.9089 H        29        0    0.0000
    433 H         166.6286  182.9473  193.7419 H        29        0    0.0000
    434 H         165.2570  182.2456  191.1272 H        29        0    0.0000
    435 H         164.6379  181.9868  192.7535 H        29        0    0.0000
    436 H         166.9563  180.5760  191.9411 H        29        0    0.0000
    437 H         167.2977  180.7928  193.6477 H        29        0    0.0000
    438 H         168.9577  181.3247  191.2114 H        29        0    0.0000
    439 H         169.7605  179.6542  192.7492 H        29        0    0.0000
    440 H         170.9073  180.9841  192.6427 H        29        0    0.0000
    441 C         173.4227  179.8068  195.3698 C.3      30        0    0.0000
    442 C         172.3315  180.1800  194.3779 C.3      30        0    0.0000
    443 C         171.0625  180.1351  195.2316 C.3      30        0    0.0000
    444 C         169.8890  180.8520  194.5594 C.3      30        0    0.0000
    445 C         171.5039  180.7429  196.5757 C.3      30        0    0.0000
    446 C         173.0369  180.5824  196.6357 C.3      30        0    0.0000
    447 C         173.5878  180.0100  197.9480 C.3      30        0    0.0000
    448 H         174.4171  180.0851  195.0069 H        30        0    0.0000
    449 H         173.4161  178.7234  195.5308 H        30        0    0.0000
    450 H         172.5067  181.1877  193.9819 H        30        0    0.0000
    451 H         172.2882  179.4833  193.5352 H        30        0    0.0000
    452 H         170.7992  179.0809  195.4018 H        30        0    0.0000
    453 H         168.9383  180.4646  194.9445 H        30        0    0.0000
    454 H         169.9211  181.9178  194.8151 H        30        0    0.0000
    455 H         171.2544  181.8099  196.6296 H        30        0    0.0000
    456 H         170.9878  180.2544  197.4089 H        30        0    0.0000
    457 H         173.4621  181.5922  196.5358 H        30        0    0.0000
    458 H         172.7650  179.9006  198.6644 H        30        0    0.0000
    459 H         174.2896  180.7312  198.3837 H        30        0    0.0000
    460 C         177.5292  179.0899  195.8521 C.3      31        0    0.0000
    461 C         176.3827  179.6908  196.6507 C.3      31        0    0.0000
    462 C         175.3239  178.5809  196.6486 C.3      31        0    0.0000
    463 C         174.3103  178.6403  197.7984 C.3      31        0    0.0000
    464 C         176.1070  177.2577  196.5243 C.3      31        0    0.0000
    465 C         177.5874  177.6500  196.3663 C.3      31        0    0.0000
    466 C         178.3959  176.7384  195.4398 C.3      31        0    0.0000
    467 H         177.3008  179.1183  194.7796 H        31        0    0.0000
    468 H         178.4687  179.6264  196.0167 H        31        0    0.0000
    469 H         176.7276  179.9309  197.6623 H        31        0    0.0000
    470 H         176.0084  180.6138  196.1969 H        31        0    0.0000
    471 H         174.7449  178.6911  195.7196 H        31        0    0.0000
    472 H         173.5549  177.8599  197.6474 H        31        0    0.0000
    473 H         174.8216  178.4046  198.7393 H        31        0    0.0000
    474 H         175.7454  176.7104  195.6448 H        31        0    0.0000
    475 H         175.9722  176.5962  197.3865 H        31        0    0.0000
    476 H         178.0482  177.6594  197.3648 H        31        0    0.0000
    477 H         177.8737  176.6118  194.4840 H        31        0    0.0000
    478 H         179.3574  177.2140  195.2124 H        31        0    0.0000
    479 C         178.6658  175.3410  196.0649 C.3      32        0    0.0000
    480 C         180.0938  174.8230  195.8419 C.3      32        0    0.0000
    481 H         178.5049  175.4411  197.1460 H        32        0    0.0000
    482 H         177.9201  174.6238  195.7023 H        32        0    0.0000
    483 H         180.1842  174.3040  194.8804 H        32        0    0.0000
    484 H         180.7667  175.6889  195.7954 H        32        0    0.0000
    485 C         178.4677  171.1756  198.1786 C.3      33        0    0.0000
    486 C         178.6082  172.3478  197.2086 C.3      33        0    0.0000
    487 C         180.1042  172.4611  196.8676 C.3      33        0    0.0000
    488 C         180.6236  173.8994  196.9929 C.3      33        0    0.0000
    489 C         180.7962  171.4614  197.8071 C.3      33        0    0.0000
    490 C         179.7560  170.3595  198.0454 C.3      33        0    0.0000
    491 C         179.6612  169.3252  196.9090 C.3      33        0    0.0000
    492 H         178.3927  171.5680  199.2008 H        33        0    0.0000
    493 H         177.5617  170.5913  197.9895 H        33        0    0.0000
    494 H         178.2018  173.2626  197.6536 H        33        0    0.0000
    495 H         178.0363  172.1532  196.2937 H        33        0    0.0000
    496 H         180.2404  172.1203  195.8315 H        33        0    0.0000
    497 H         181.7198  173.9093  196.9990 H        33        0    0.0000
    498 H         180.2979  174.3197  197.9520 H        33        0    0.0000
    499 H         181.7333  171.0840  197.3864 H        33        0    0.0000
    500 H         181.0359  171.9419  198.7646 H        33        0    0.0000
    501 H         179.9642  169.8408  198.9899 H        33        0    0.0000
    502 H         179.2814  169.7803  195.9879 H        33        0    0.0000
    503 H         178.9448  168.5440  197.1908 H        33        0    0.0000
    504 C         182.8040  168.0943  199.9091 C.3      34        0    0.0000
    505 C         181.5397  168.1625  199.0661 C.3      34        0    0.0000
    506 C         182.0248  168.8224  197.7737 C.3      34        0    0.0000
    507 C         181.0293  168.6427  196.6250 C.3      34        0    0.0000
    508 C         183.4063  168.1862  197.5340 C.3      34        0    0.0000
    509 C         183.8813  167.6638  198.9056 C.3      34        0    0.0000
    510 C         185.3195  168.0346  199.2890 C.3      34        0    0.0000
    511 H         182.7065  167.3825  200.7348 H        34        0    0.0000
    512 H         183.0106  169.0802  200.3395 H        34        0    0.0000
    513 H         181.1558  167.1530  198.8752 H        34        0    0.0000
    514 H         180.7514  168.7421  199.5561 H        34        0    0.0000
    515 H         182.1703  169.8950  197.9683 H        34        0    0.0000
    516 H         181.4478  169.0457  195.6951 H        34        0    0.0000
    517 H         180.8604  167.5725  196.4561 H        34        0    0.0000
    518 H         183.3390  167.3433  196.8349 H        34        0    0.0000
    519 H         184.0945  168.9126  197.0892 H        34        0    0.0000
    520 H         183.8489  166.5654  198.8511 H        34        0    0.0000
    521 H         185.5231  167.6763  200.3050 H        34        0    0.0000
    522 H         185.4096  169.1271  199.3173 H        34        0    0.0000
    523 C         186.2948  164.3575  196.2017 C.3      35        0    0.0000
    524 C         185.7301  165.7220  196.6055 C.3      35        0    0.0000
    525 C         186.2102  165.9795  198.0398 C.3      35        0    0.0000
    526 C         186.4061  167.4703  198.3293 C.3      35        0    0.0000
    527 C         187.4866  165.1371  198.1363 C.3      35        0    0.0000
    528 C         187.0926  163.8473  197.4090 C.3      35        0    0.0000
    529 C         188.2717  162.9623  196.9955 C.3      35        0    0.0000
    530 H         185.4963  163.6572  195.9342 H        35        0    0.0000
    531 H         186.9342  164.4740  195.3184 H        35        0    0.0000
    532 H         184.6364  165.7351  196.5491 H        35        0    0.0000
    533 H         186.1002  166.4891  195.9147 H        35        0    0.0000
    534 H         185.4626  165.5639  198.7311 H        35        0    0.0000
    535 H         186.3645  168.0304  197.3874 H        35        0    0.0000
    536 H         187.3994  167.6470  198.7584 H        35        0    0.0000
    537 H         187.7748  164.9490  199.1754 H        35        0    0.0000
    538 H         188.3241  165.6335  197.6302 H        35        0    0.0000
    539 H         186.4096  163.2755  198.0540 H        35        0    0.0000
    540 H         189.1939  163.5535  196.9519 H        35        0    0.0000
    541 H         188.0965  162.5748  195.9847 H        35        0    0.0000
    542 C         189.1041  162.4717  201.6370 C.3      36        0    0.0000
    543 C         189.4792  162.6492  200.1724 C.3      36        0    0.0000
    544 C         188.2558  162.0928  199.4365 C.3      36        0    0.0000
    545 C         188.4736  161.7595  197.9575 C.3      36        0    0.0000
    546 C         187.7498  160.9299  200.3123 C.3      36        0    0.0000
    547 C         188.4788  161.0731  201.6626 C.3      36        0    0.0000
    548 C         187.6404  160.7504  202.9032 C.3      36        0    0.0000
    549 H         189.9763  162.5443  202.2941 H        36        0    0.0000
    550 H         188.3898  163.2480  201.9328 H        36        0    0.0000
    551 H         189.6674  163.6980  199.9228 H        36        0    0.0000
    552 H         190.3879  162.0785  199.9513 H        36        0    0.0000
    553 H         187.4811  162.8737  199.4700 H        36        0    0.0000
    554 H         189.4894  161.3687  197.8244 H        36        0    0.0000
    555 H         187.7865  160.9563  197.6661 H        36        0    0.0000
    556 H         187.9673  159.9466  199.8814 H        36        0    0.0000
    557 H         186.6603  160.9909  200.4080 H        36        0    0.0000
    558 H         189.3100  160.3519  201.6509 H        36        0    0.0000
    559 H         188.0109  161.3412  203.7493 H        36        0    0.0000
    560 H         186.6050  161.0658  202.7281 H        36        0    0.0000
    561 C         190.1833  158.1231  205.7672 C.3      37        0    0.0000
    562 C         189.5744  159.3088  205.0147 C.3      37        0    0.0000
    563 C         189.0499  158.7582  203.6764 C.3      37        0    0.0000
    564 C         187.6438  159.2447  203.3045 C.3      37        0    0.0000
    565 C         189.1172  157.2361  203.8369 C.3      37        0    0.0000
    566 C         190.3327  156.9966  204.7389 C.3      37        0    0.0000
    567 C         191.6617  157.0582  203.9623 C.3      37        0    0.0000
    568 H         191.1194  158.3938  206.2648 H        37        0    0.0000
    569 H         189.4833  157.8047  206.5503 H        37        0    0.0000
    570 H         188.7891  159.7739  205.6207 H        37        0    0.0000
    571 H         190.3364  160.0747  204.8289 H        37        0    0.0000
    572 H         189.7542  159.0493  202.8840 H        37        0    0.0000
    573 H         187.2688  158.6580  202.4574 H        37        0    0.0000
    574 H         186.9494  159.0809  204.1365 H        37        0    0.0000
    575 H         189.1965  156.7251  202.8719 H        37        0    0.0000
    576 H         188.2127  156.8642  204.3356 H        37        0    0.0000
    577 H         190.2408  156.0188  205.2284 H        37        0    0.0000
    578 H         192.4582  157.4949  204.5749 H        37        0    0.0000
    579 H         191.5417  157.7068  203.0864 H        37        0    0.0000
    580 C         191.4073  152.9987  206.0783 C.3      38        0    0.0000
    581 C         191.1393  154.3831  205.5082 C.3      38        0    0.0000
    582 C         192.3396  154.6295  204.5855 C.3      38        0    0.0000
    583 C         192.1063  155.6519  203.4660 C.3      38        0    0.0000
    584 C         192.8019  153.2331  204.1208 C.3      38        0    0.0000
    585 C         191.9116  152.2190  204.8621 C.3      38        0    0.0000
    586 C         192.6161  150.9200  205.2609 C.3      38        0    0.0000
    587 H         192.1746  153.0520  206.8603 H        38        0    0.0000
    588 H         190.5069  152.5526  206.5115 H        38        0    0.0000
    589 H         190.1911  154.3759  204.9598 H        38        0    0.0000
    590 H         191.0654  155.1413  206.2942 H        38        0    0.0000
    591 H         193.1481  155.0352  205.2117 H        38        0    0.0000
    592 H         193.0302  155.7606  202.8854 H        38        0    0.0000
    593 H         191.3470  155.2624  202.7776 H        38        0    0.0000
    594 H         193.8586  153.1009  204.3849 H        38        0    0.0000
    595 H         192.7265  153.0941  203.0372 H        38        0    0.0000
    596 H         191.0492  151.9864  204.2206 H        38        0    0.0000
    597 H         191.9966  150.3553  205.9677 H        38        0    0.0000
    598 H         192.7380  150.2869  204.3740 H        38        0    0.0000
    599 C         196.4324  148.2519  206.1862 C.3      39        0    0.0000
    600 C         196.1658  149.7271  205.9211 C.3      39        0    0.0000
    601 C         194.7169  149.9017  206.3878 C.3      39        0    0.0000
    602 C         194.0147  151.1695  205.8920 C.3      39        0    0.0000
    603 C         194.0155  148.5742  206.0395 C.3      39        0    0.0000
    604 C         195.1434  147.5794  205.7025 C.3      39        0    0.0000
    605 C         194.9266  146.1445  206.1929 C.3      39        0    0.0000
    606 H         197.3124  147.8917  205.6445 H        39        0    0.0000
    607 H         196.6033  148.0934  207.2567 H        39        0    0.0000
    608 H         196.8561  150.3728  206.4725 H        39        0    0.0000
    609 H         196.2828  149.9379  204.8524 H        39        0    0.0000
    610 H         194.7413  149.9674  207.4861 H        39        0    0.0000
    611 H         193.9036  151.8682  206.7297 H        39        0    0.0000
    612 H         194.6522  151.6656  205.1505 H        39        0    0.0000
    613 H         193.3377  148.6627  205.1836 H        39        0    0.0000
    614 H         193.4019  148.2510  206.8872 H        39        0    0.0000
    615 H         195.2026  147.5288  204.6048 H        39        0    0.0000
    616 H         195.9014  145.6799  206.3825 H        39        0    0.0000
    617 H         194.3976  146.1699  207.1529 H        39        0    0.0000
    618 C         192.7896  142.1120  206.6791 C.3      40        0    0.0000
    619 C         193.6032  143.3865  206.9167 C.3      40        0    0.0000
    620 C         194.2428  143.7583  205.5669 C.3      40        0    0.0000
    621 C         194.1267  145.2439  205.2043 C.3      40        0    0.0000
    622 C         193.5413  142.8528  204.5495 C.3      40        0    0.0000
    623 C         193.2430  141.5633  205.3219 C.3      40        0    0.0000
    624 C         194.4725  140.6407  205.4220 C.3      40        0    0.0000
    625 H         192.8990  141.3996  207.5023 H        40        0    0.0000
    626 H         191.7260  142.3773  206.6227 H        40        0    0.0000
    627 H         192.9554  144.1764  207.3126 H        40        0    0.0000
    628 H         194.3863  143.2058  207.6623 H        40        0    0.0000
    629 H         195.3050  143.4763  205.5993 H        40        0    0.0000
    630 H         194.5198  145.4027  204.1931 H        40        0    0.0000
    631 H         193.0753  145.5532  205.1886 H        40        0    0.0000
    632 H         194.1558  142.6829  203.6595 H        40        0    0.0000
    633 H         192.5984  143.3079  204.2194 H        40        0    0.0000
    634 H         192.4206  141.0244  204.8345 H        40        0    0.0000
    635 H         195.2428  141.0765  206.0678 H        40        0    0.0000
    636 H         194.9200  140.5216  204.4281 H        40        0    0.0000
    637 C         190.7949  140.7639  206.6870 C.3      41        0    0.0000
    638 C         192.2536  140.6087  207.1239 C.3      41        0    0.0000
    639 C         192.7162  139.2262  206.6301 C.3      41        0    0.0000
    640 C         194.0930  139.2284  205.9544 C.3      41        0    0.0000
    641 C         191.6026  138.7663  205.6838 C.3      41        0    0.0000
    642 C         190.3220  139.3656  206.2749 C.3      41        0    0.0000
    643 C         189.7767  138.5387  207.4548 C.3      41        0    0.0000
    644 H         190.1826  141.2248  207.4680 H        41        0    0.0000
    645 H         190.7563  141.4284  205.8143 H        41        0    0.0000
    646 H         192.8557  141.4290  206.7179 H        41        0    0.0000
    647 H         192.3322  140.6592  208.2161 H        41        0    0.0000
    648 H         192.7372  138.5420  207.4904 H        41        0    0.0000
    649 H         194.8536  138.9137  206.6788 H        41        0    0.0000
    650 H         194.1175  138.5033  205.1328 H        41        0    0.0000
    651 H         191.5615  137.6756  205.5982 H        41        0    0.0000
    652 H         191.7653  139.1720  204.6768 H        41        0    0.0000
    653 H         189.5547  139.4374  205.4937 H        41        0    0.0000
    654 H         189.0980  139.1344  208.0753 H        41        0    0.0000
    655 H         190.6090  138.2304  208.0986 H        41        0    0.0000
    656 C         190.5541  138.1213  203.7400 C.3      42        0    0.0000
    657 C         190.7727  137.4794  205.1092 C.3      42        0    0.0000
    658 C         189.4228  136.8757  205.5338 C.3      42        0    0.0000
    659 C         189.0393  137.2570  206.9697 C.3      42        0    0.0000
    660 C         188.4258  137.3602  204.4699 C.3      42        0    0.0000
    661 C         189.2589  137.5170  203.1915 C.3      42        0    0.0000
    662 C         189.5177  136.1976  202.4415 C.3      42        0    0.0000
    663 H         190.4205  139.2026  203.8723 H        42        0    0.0000
    664 H         191.4139  137.9805  203.0775 H        42        0    0.0000
    665 H         191.1519  138.2199  205.8220 H        42        0    0.0000
    666 H         191.5251  136.6849  205.0395 H        42        0    0.0000
    667 H         189.5059  135.7819  205.4640 H        42        0    0.0000
    668 H         189.2523  136.4274  207.6539 H        42        0    0.0000
    669 H         187.9590  137.4390  207.0197 H        42        0    0.0000
    670 H         187.5839  136.6709  204.3523 H        42        0    0.0000
    671 H         188.0132  138.3377  204.7516 H        42        0    0.0000
    672 H         188.7771  138.2310  202.5113 H        42        0    0.0000
    673 H         189.6364  135.3610  203.1383 H        42        0    0.0000
    674 H         190.4594  136.2776  201.8850 H        42        0    0.0000
    675 C         188.3860  135.8713  201.4263 C.3      43        0    0.0000
    676 C         188.1505  134.3687  201.2162 C.3      43        0    0.0000
    677 H         187.4631  136.3074  201.8297 H        43        0    0.0000
    678 H         188.5840  136.3808  200.4759 H        43        0    0.0000
    679 H         189.0641  133.8651  200.8791 H        43        0    0.0000
    680 H         187.8880  133.9264  202.1857 H        43        0    0.0000
    681 C         184.7885  137.1098  199.7389 C.3      44        0    0.0000
    682 C         185.7146  136.2721  200.6097 C.3      44        0    0.0000
    683 C         186.3086  135.2716  199.6128 C.3      44        0    0.0000
    684 C         186.9729  134.0395  200.2347 C.3      44        0    0.0000
    685 C         185.1773  134.9803  198.6074 C.3      44        0    0.0000
    686 C         184.1055  136.0593  198.8572 C.3      44        0    0.0000
    687 C         183.4114  136.6030  197.6047 C.3      44        0    0.0000
    688 H         184.0678  137.6769  200.3362 H        44        0    0.0000
    689 H         185.3777  137.8218  199.1505 H        44        0    0.0000
    690 H         186.4863  136.8815  201.0900 H        44        0    0.0000
    691 H         185.1348  135.7759  201.3957 H        44        0    0.0000
    692 H         187.0955  135.8039  199.0573 H        44        0    0.0000
    693 H         186.2157  133.4590  200.7751 H        44        0    0.0000
    694 H         187.3521  133.3940  199.4336 H        44        0    0.0000
    695 H         184.7348  133.9872  198.7406 H        44        0    0.0000
    696 H         185.5777  135.0058  197.5883 H        44        0    0.0000
    697 H         183.3212  135.5898  199.4700 H        44        0    0.0000
    698 H         182.4747  137.0918  197.8980 H        44        0    0.0000
    699 H         184.0426  137.3773  197.1527 H        44        0    0.0000
    700 C         182.4412  132.3269  198.4214 C.3      45        0    0.0000
    701 C         182.7655  133.8228  198.3946 C.3      45        0    0.0000
    702 C         183.3905  134.1034  197.0217 C.3      45        0    0.0000
    703 C         183.0961  135.5224  196.5272 C.3      45        0    0.0000
    704 C         182.8146  132.9884  196.1424 C.3      45        0    0.0000
    705 C         182.8837  131.7659  197.0636 C.3      45        0    0.0000
    706 C         182.0246  130.5802  196.6158 C.3      45        0    0.0000
    707 H         182.9582  131.8200  199.2432 H        45        0    0.0000
    708 H         181.3650  132.1896  198.5808 H        45        0    0.0000
    709 H         183.4522  134.0980  199.2024 H        45        0    0.0000
    710 H         181.8440  134.3988  198.5413 H        45        0    0.0000
    711 H         184.4776  133.9589  197.1042 H        45        0    0.0000
    712 H         182.0361  135.5987  196.2565 H        45        0    0.0000
    713 H         183.6705  135.7351  195.6180 H        45        0    0.0000
    714 H         183.3994  132.8453  195.2283 H        45        0    0.0000
    715 H         181.7779  133.2081  195.8582 H        45        0    0.0000
    716 H         183.9337  131.4501  197.1492 H        45        0    0.0000
    717 H         180.9818  130.7301  196.9190 H        45        0    0.0000
    718 H         182.3726  129.6704  197.1196 H        45        0    0.0000
    719 C         178.9456  128.3206  194.4868 C.3      46        0    0.0000
    720 C         179.9403  128.9491  195.4507 C.3      46        0    0.0000
    721 C         181.1586  129.2442  194.5666 C.3      46        0    0.0000
    722 C         182.0889  130.3502  195.0809 C.3      46        0    0.0000
    723 C         180.6002  129.4573  193.1445 C.3      46        0    0.0000
    724 C         179.0869  129.1882  193.2345 C.3      46        0    0.0000
    725 C         178.4809  128.5198  191.9979 C.3      46        0    0.0000
    726 H         179.2225  127.2796  194.2805 H        46        0    0.0000
    727 H         177.9264  128.3317  194.8851 H        46        0    0.0000
    728 H         179.5096  129.8609  195.8784 H        46        0    0.0000
    729 H         180.1886  128.2765  196.2777 H        46        0    0.0000
    730 H         181.7610  128.3242  194.5324 H        46        0    0.0000
    731 H         183.1212  130.1031  194.8061 H        46        0    0.0000
    732 H         181.8445  131.2897  194.5711 H        46        0    0.0000
    733 H         181.0886  128.7524  192.4601 H        46        0    0.0000
    734 H         180.7916  130.4623  192.7539 H        46        0    0.0000
    735 H         178.5787  130.1457  193.4197 H        46        0    0.0000
    736 H         177.4848  128.9310  191.7956 H        46        0    0.0000
    737 H         179.0997  128.7491  191.1223 H        46        0    0.0000
    738 C         175.2599  125.7616  190.3417 C.3      47        0    0.0000
    739 C         176.0183  126.8541  191.0823 C.3      47        0    0.0000
    740 C         177.4489  126.3072  191.1265 C.3      47        0    0.0000
    741 C         178.3772  126.9758  192.1451 C.3      47        0    0.0000
    742 C         177.2954  124.7803  191.2693 C.3      47        0    0.0000
    743 C         175.8151  124.4770  190.9657 C.3      47        0    0.0000
    744 C         175.5535  123.1938  190.1712 C.3      47        0    0.0000
    745 H         174.1777  125.8507  190.4782 H        47        0    0.0000
    746 H         175.4739  125.8246  189.2691 H        47        0    0.0000
    747 H         175.9615  127.8156  190.5626 H        47        0    0.0000
    748 H         175.5955  126.9837  192.0847 H        47        0    0.0000
    749 H         177.8906  126.4889  190.1350 H        47        0    0.0000
    750 H         178.0264  126.7412  193.1571 H        47        0    0.0000
    751 H         179.3811  126.5449  192.0520 H        47        0    0.0000
    752 H         177.5445  124.4194  192.2731 H        47        0    0.0000
    753 H         177.9830  124.2773  190.5809 H        47        0    0.0000
    754 H         175.3128  124.3512  191.9367 H        47        0    0.0000
    755 H         176.5131  122.7571  189.8703 H        47        0    0.0000
    756 H         175.0650  122.4612  190.8245 H        47        0    0.0000
    757 C         172.9953  120.0286  188.4580 C.3      48        0    0.0000
    758 C         173.9748  120.9192  189.2069 C.3      48        0    0.0000
    759 C         174.2005  122.0923  188.2447 C.3      48        0    0.0000
    760 C         174.6748  123.3955  188.9003 C.3      48        0    0.0000
    761 C         172.9070  122.2031  187.4115 C.3      48        0    0.0000
    762 C         172.0105  121.0329  187.8557 C.3      48        0    0.0000
    763 C         171.1656  120.4141  186.7394 C.3      48        0    0.0000
    764 H         173.5165  119.4662  187.6738 H        48        0    0.0000
    765 H         172.5018  119.3128  189.1227 H        48        0    0.0000
    766 H         173.5270  121.2413  190.1532 H        48        0    0.0000
    767 H         174.9076  120.3957  189.4392 H        48        0    0.0000
    768 H         174.9967  121.7883  187.5488 H        48        0    0.0000
    769 H         175.2473  123.9751  188.1663 H        48        0    0.0000
    770 H         173.8006  124.0016  189.1661 H        48        0    0.0000
    771 H         173.1607  122.1267  186.3468 H        48        0    0.0000
    772 H         172.3899  123.1590  187.5461 H        48        0    0.0000
    773 H         171.3506  121.3920  188.6589 H        48        0    0.0000
    774 H         170.2142  120.0483  187.1436 H        48        0    0.0000
    775 H         170.9177  121.1868  186.0020 H        48        0    0.0000
    776 C         172.3066  117.1858  183.4940 C.3      49        0    0.0000
    777 C         171.4554  118.4492  183.6464 C.3      49        0    0.0000
    778 C         170.9465  118.4615  185.0920 C.3      49        0    0.0000
    779 C         171.8959  119.2487  186.0148 C.3      49        0    0.0000
    780 C         170.8479  116.9642  185.4105 C.3      49        0    0.0000
    781 C         172.0999  116.3568  184.7725 C.3      49        0    0.0000
    782 C         171.9606  114.8487  184.5359 C.3      49        0    0.0000
    783 H         172.0056  116.6436  182.5904 H        49        0    0.0000
    784 H         173.3651  117.4458  183.3788 H        49        0    0.0000
    785 H         170.6000  118.3838  182.9620 H        49        0    0.0000
    786 H         172.0124  119.3524  183.3770 H        49        0    0.0000
    787 H         169.9501  118.9201  185.1316 H        49        0    0.0000
    788 H         172.7107  119.6732  185.4158 H        49        0    0.0000
    789 H         172.3630  118.5927  186.7570 H        49        0    0.0000
    790 H         169.9444  116.5519  184.9425 H        49        0    0.0000
    791 H         170.7900  116.7472  186.4813 H        49        0    0.0000
    792 H         172.9523  116.5360  185.4428 H        49        0    0.0000
    793 H         172.0291  114.3058  185.4857 H        49        0    0.0000
    794 H         172.7905  114.5003  183.9099 H        49        0    0.0000
    795 C         170.6200  114.4952  183.8302 C.3      50        0    0.0000
    796 C         170.7938  113.8522  182.4468 C.3      50        0    0.0000
    797 H         170.1014  113.7761  184.4772 H        50        0    0.0000
    798 H         169.9834  115.3863  183.7788 H        50        0    0.0000
    799 H         171.6498  114.2808  181.9125 H        50        0    0.0000
    800 H         171.0157  112.7872  182.5918 H        50        0    0.0000
    801 C         166.3183  115.1448  183.1737 C.3      51        0    0.0000
    802 C         167.8303  115.2229  183.0283 C.3      51        0    0.0000
    803 C         168.1903  113.9122  182.3173 C.3      51        0    0.0000
    804 C         169.5146  113.9291  181.5433 C.3      51        0    0.0000
    805 C         166.9452  113.5307  181.4903 C.3      51        0    0.0000
    806 C         165.8725  114.5844  181.8214 C.3      51        0    0.0000
    807 C         164.4395  114.0480  181.8631 C.3      51        0    0.0000
    808 H         166.0500  114.4651  183.9917 H        51        0    0.0000
    809 H         165.8757  116.1236  183.3822 H        51        0    0.0000
    810 H         168.0959  116.1027  182.4324 H        51        0    0.0000
    811 H         168.3298  115.3124  183.9981 H        51        0    0.0000
    812 H         168.2970  113.1429  183.0965 H        51        0    0.0000
    813 H         169.5283  113.0852  180.8433 H        51        0    0.0000
    814 H         169.5633  114.8411  180.9366 H        51        0    0.0000
    815 H         166.6173  112.5253  181.7824 H        51        0    0.0000
    816 H         167.1379  113.5006  180.4128 H        51        0    0.0000
    817 H         165.9410  115.3898  181.0756 H        51        0    0.0000
    818 H         164.2106  113.6579  182.8618 H        51        0    0.0000
    819 H         163.7390  114.8712  181.6787 H        51        0    0.0000
    820 C         166.6483  110.7646  180.9667 C.3      52        0    0.0000
    821 C         166.6441  112.2906  180.8414 C.3      52        0    0.0000
    822 C         165.4438  112.6533  179.9602 C.3      52        0    0.0000
    823 C         164.1890  112.9339  180.8083 C.3      52        0    0.0000
    824 C         165.3323  111.4252  179.0479 C.3      52        0    0.0000
    825 C         165.5971  110.2371  179.9761 C.3      52        0    0.0000
    826 C         166.0225  108.9806  179.2080 C.3      52        0    0.0000
    827 H         167.6523  110.3789  180.7564 H        52        0    0.0000
    828 H         166.3915  110.4611  181.9881 H        52        0    0.0000
    829 H         167.5687  112.6067  180.3420 H        52        0    0.0000
    830 H         166.6252  112.7810  181.8200 H        52        0    0.0000
    831 H         165.6766  113.5445  179.3633 H        52        0    0.0000
    832 H         163.8998  112.0180  181.3378 H        52        0    0.0000
    833 H         163.3376  113.2123  180.1782 H        52        0    0.0000
    834 H         166.1049  111.4794  178.2697 H        52        0    0.0000
    835 H         164.3651  111.3407  178.5435 H        52        0    0.0000
    836 H         164.6748  110.0201  180.5331 H        52        0    0.0000
    837 H         165.2257  108.6628  178.5256 H        52        0    0.0000
    838 H         166.1822  108.1582  179.9154 H        52        0    0.0000
    839 C         167.3347  109.2102  178.4045 C.3      53        0    0.0000
    840 C         168.5456  108.4434  178.9550 C.3      53        0    0.0000
    841 H         167.5570  110.2835  178.4610 H        53        0    0.0000
    842 H         167.1647  108.9806  177.3461 H        53        0    0.0000
    843 H         168.4724  108.4321  180.0500 H        53        0    0.0000
    844 H         168.5364  107.3965  178.6295 H        53        0    0.0000
    845 C         170.2378  109.6808  174.8862 C.3      54        0    0.0000
    846 C         169.4433  109.7048  176.1830 C.3      54        0    0.0000
    847 C         170.3165  108.8849  177.1351 C.3      54        0    0.0000
    848 C         169.9271  109.0948  178.6004 C.3      54        0    0.0000
    849 C         171.7508  109.3189  176.7814 C.3      54        0    0.0000
    850 C         171.6856  109.8874  175.3489 C.3      54        0    0.0000
    851 C         172.7614  109.3697  174.3857 C.3      54        0    0.0000
    852 H         169.9140  110.4645  174.1941 H        54        0    0.0000
    853 H         170.0969  108.7153  174.3883 H        54        0    0.0000
    854 H         169.3291  110.7358  176.5393 H        54        0    0.0000
    855 H         168.4457  109.2721  176.0603 H        54        0    0.0000
    856 H         170.2056  107.8222  176.8749 H        54        0    0.0000
    857 H         170.7004  108.6833  179.2599 H        54        0    0.0000
    858 H         169.8738  110.1697  178.8107 H        54        0    0.0000
    859 H         172.1069  110.1033  177.4607 H        54        0    0.0000
    860 H         172.4444  108.4770  176.8783 H        54        0    0.0000
    861 H         171.8436  110.9728  175.4348 H        54        0    0.0000
    862 H         172.9171  110.1095  173.5915 H        54        0    0.0000
    863 H         172.3939  108.4586  173.8985 H        54        0    0.0000
    864 C         173.7496  108.6760  178.8079 C.3      55        0    0.0000
    865 C         173.1299  108.6795  177.4188 C.3      55        0    0.0000
    866 C         174.1871  109.3805  176.5564 C.3      55        0    0.0000
    867 C         174.1293  109.0577  175.0579 C.3      55        0    0.0000
    868 C         175.5394  109.0980  177.2426 C.3      55        0    0.0000
    869 C         175.2115  108.3199  178.5301 C.3      55        0    0.0000
    870 C         176.1196  108.6394  179.7201 C.3      55        0    0.0000
    871 H         173.6641  109.6697  179.2643 H        55        0    0.0000
    872 H         173.2659  107.9518  179.4704 H        55        0    0.0000
    873 H         172.9503  107.6485  177.0955 H        55        0    0.0000
    874 H         172.1714  109.2077  177.4004 H        55        0    0.0000
    875 H         174.0094  110.4625  176.6469 H        55        0    0.0000
    876 H         174.9118  109.6259  174.5411 H        55        0    0.0000
    877 H         174.3628  107.9965  174.9108 H        55        0    0.0000
    878 H         176.0304  110.0525  177.4700 H        55        0    0.0000
    879 H         176.2304  108.5286  176.6122 H        55        0    0.0000
    880 H         175.2671  107.2449  178.3047 H        55        0    0.0000
    881 H         175.7673  109.5423  180.2330 H        55        0    0.0000
    882 H         176.0635  107.8217  180.4485 H        55        0    0.0000
    883 C         177.6041  108.8343  179.3021 C.3      56        0    0.0000
    884 C         178.5263  107.6797  179.7188 C.3      56        0    0.0000
    885 H         177.9559  109.7474  179.7991 H        56        0    0.0000
    886 H         177.6625  109.0222  178.2235 H        56        0    0.0000
    887 H         179.2775  108.0775  180.4130 H        56        0    0.0000
    888 H         177.9743  106.9053  180.2643 H        56        0    0.0000
    889 C         182.2658  108.9800  177.4161 C.3      57        0    0.0000
    890 C         181.0641  108.9145  178.3619 C.3      57        0    0.0000
    891 C         179.9832  108.0871  177.6435 C.3      57        0    0.0000
    892 C         179.3109  107.0291  178.5272 C.3      57        0    0.0000
    893 C         180.7091  107.4696  176.4440 C.3      57        0    0.0000
    894 C         181.7569  108.5151  176.0472 C.3      57        0    0.0000
    895 C         181.1577  109.6569  175.2044 C.3      57        0    0.0000
    896 H         182.7206  109.9751  177.4035 H        57        0    0.0000
    897 H         183.0332  108.2802  177.7711 H        57        0    0.0000
    898 H         181.3655  108.4797  179.3213 H        57        0    0.0000
    899 H         180.6854  109.9225  178.5679 H        57        0    0.0000
    900 H         179.2178  108.7774  177.2609 H        57        0    0.0000
    901 H         178.6054  106.4463  177.9229 H        57        0    0.0000
    902 H         180.0555  106.3241  178.9142 H        57        0    0.0000
    903 H         180.0204  107.2271  175.6283 H        57        0    0.0000
    904 H         181.2133  106.5404  176.7395 H        57        0    0.0000
    905 H         182.5650  108.0310  175.4843 H        57        0    0.0000
    906 H         180.8423  110.4931  175.8382 H        57        0    0.0000
    907 H         180.2621  109.2949  174.6855 H        57        0    0.0000
    908 C         182.1623  110.1730  174.1337 C.3      58        0    0.0000
    909 C         182.9523  111.4160  174.5672 C.3      58        0    0.0000
    910 H         182.8779  109.3606  173.9531 H        58        0    0.0000
    911 H         181.6372  110.3443  173.1866 H        58        0    0.0000
    912 H         183.2524  112.0196  173.7025 H        58        0    0.0000
    913 H         182.2898  112.0459  175.1746 H        58        0    0.0000
    914 C         187.4799  110.9064  175.2546 C.3      59        0    0.0000
    915 C         186.3968  110.9477  174.1733 C.3      59        0    0.0000
    916 C         185.1989  110.1668  174.7248 C.3      59        0    0.0000
    917 C         184.2082  111.0969  175.4502 C.3      59        0    0.0000
    918 C         185.8792  109.1327  175.6308 C.3      59        0    0.0000
    919 C         186.9978  109.9136  176.3253 C.3      59        0    0.0000
    920 C         188.0931  108.9951  176.8788 C.3      59        0    0.0000
    921 H         188.4363  110.6098  174.8091 H        59        0    0.0000
    922 H         187.6218  111.8995  175.6961 H        59        0    0.0000
    923 H         186.7749  110.4437  173.2748 H        59        0    0.0000
    924 H         186.1471  111.9735  173.8837 H        59        0    0.0000
    925 H         184.6755  109.6600  173.9038 H        59        0    0.0000
    926 H         184.7102  112.0424  175.6886 H        59        0    0.0000
    927 H         183.8844  110.6663  176.4037 H        59        0    0.0000
    928 H         186.3026  108.3305  175.0124 H        59        0    0.0000
    929 H         185.1996  108.6670  176.3508 H        59        0    0.0000
    930 H         186.5582  110.4854  177.1546 H        59        0    0.0000
    931 H         188.8937  108.8686  176.1408 H        59        0    0.0000
    932 H         187.6733  107.9998  177.0663 H        59        0    0.0000
    933 C         192.2011  108.2897  177.5261 C.3      60        0    0.0000
    934 C         190.7298  108.0004  177.7815 C.3      60        0    0.0000
    935 C         190.2007  109.3183  178.3614 C.3      60        0    0.0000
    936 C         188.6913  109.5430  178.2063 C.3      60        0    0.0000
    937 C         191.0988  110.4244  177.7702 C.3      60        0    0.0000
    938 C         192.1758  109.7027  176.9397 C.3      60        0    0.0000
    939 C         193.5559  110.3640  176.9677 C.3      60        0    0.0000
    940 H         192.7626  108.2620  178.4679 H        60        0    0.0000
    941 H         192.6480  107.5644  176.8392 H        60        0    0.0000
    942 H         190.2393  107.7377  176.8380 H        60        0    0.0000
    943 H         190.5921  107.1644  178.4744 H        60        0    0.0000
    944 H         190.4009  109.2965  179.4431 H        60        0    0.0000
    945 H         188.1726  109.0677  179.0474 H        60        0    0.0000
    946 H         188.4803  110.6169  178.2738 H        60        0    0.0000
    947 H         191.5483  110.9961  178.5918 H        60        0    0.0000
    948 H         190.5478  111.1398  177.1508 H        60        0    0.0000
    949 H         191.8214  109.6378  175.9006 H        60        0    0.0000
    950 H         193.8596  110.6487  175.9534 H        60        0    0.0000
    951 H         193.5018  111.2905  177.5517 H        60        0    0.0000
    952 C         198.3130  109.0890  176.7856 C.3      61        0    0.0000
    953 C         197.1358  108.9417  177.7532 C.3      61        0    0.0000
    954 C         196.0634  109.9322  177.2807 C.3      61        0    0.0000
    955 C         194.6449  109.4453  177.5894 C.3      61        0    0.0000
    956 C         196.3723  110.0943  175.7886 C.3      61        0    0.0000
    957 C         197.9029  110.1625  175.7688 C.3      61        0    0.0000
    958 C         198.5341  109.9322  174.3929 C.3      61        0    0.0000
    959 H         199.2298  109.3761  177.3116 H        61        0    0.0000
    960 H         198.5066  108.1266  176.2970 H        61        0    0.0000
    961 H         197.4371  109.1518  178.7850 H        61        0    0.0000
    962 H         196.7680  107.9089  177.7260 H        61        0    0.0000
    963 H         196.2412  110.8946  177.7823 H        61        0    0.0000
    964 H         194.4998  109.4185  178.6760 H        61        0    0.0000
    965 H         194.5076  108.4198  177.2269 H        61        0    0.0000
    966 H         195.9172  110.9988  175.3727 H        61        0    0.0000
    967 H         196.0100  109.2311  175.2164 H        61        0    0.0000
    968 H         198.2155  111.1418  176.1597 H        61        0    0.0000
    969 H         198.1937  108.9784  173.9731 H        61        0    0.0000
    970 H         199.6229  109.8590  174.5018 H        61        0    0.0000
    971 C         198.2135  111.0796  173.3961 C.3      62        0    0.0000
    972 C         198.6300  110.7829  171.9484 C.3      62        0    0.0000
    973 H         197.1253  111.2210  173.4152 H        62        0    0.0000
    974 H         198.6575  112.0156  173.7551 H        62        0    0.0000
    975 H         199.7050  110.5805  171.8761 H        62        0    0.0000
    976 H         198.1161  109.8679  171.6271 H        62        0    0.0000
    977 C         200.8205  112.2958  168.3533 C.3      63        0    0.0000
    978 C         200.2876  111.4255  169.4906 C.3      63        0    0.0000
    979 C         198.7616  111.6197  169.5166 C.3      63        0    0.0000
    980 C         198.2341  111.9063  170.9286 C.3      63        0    0.0000
    981 C         198.4936  112.7468  168.5074 C.3      63        0    0.0000
    982 C         199.6145  112.6199  167.4679 C.3      63        0    0.0000
    983 C         199.3731  111.5275  166.4103 C.3      63        0    0.0000
    984 H         201.2190  113.2270  168.7760 H        63        0    0.0000
    985 H         201.6387  111.8103  167.8123 H        63        0    0.0000
    986 H         200.7683  111.6971  170.4368 H        63        0    0.0000
    987 H         200.5209  110.3710  169.3019 H        63        0    0.0000
    988 H         198.2979  110.6963  169.1419 H        63        0    0.0000
    989 H         197.1442  112.0222  170.9119 H        63        0    0.0000
    990 H         198.6481  112.8578  171.2835 H        63        0    0.0000
    991 H         197.4926  112.6771  168.0706 H        63        0    0.0000
    992 H         198.5697  113.7251  168.9998 H        63        0    0.0000
    993 H         199.7738  113.5819  166.9642 H        63        0    0.0000
    994 H         198.3289  111.5181  166.0797 H        63        0    0.0000
    995 H         199.5695  110.5445  166.8555 H        63        0    0.0000
    996 C         203.7576  112.2310  166.6013 C.3      64        0    0.0000
    997 C         202.2593  111.9774  166.7869 C.3      64        0    0.0000
    998 C         201.5757  112.4816  165.5091 C.3      64        0    0.0000
    999 C         200.3065  111.6918  165.1776 C.3      64        0    0.0000
   1000 C         202.6849  112.3787  164.4569 C.3      64        0    0.0000
   1001 C         203.9170  112.8778  165.2191 C.3      64        0    0.0000
   1002 C         205.2566  112.5294  164.5644 C.3      64        0    0.0000
   1003 H         204.1538  112.8823  167.3877 H        64        0    0.0000
   1004 H         204.2993  111.2795  166.6640 H        64        0    0.0000
   1005 H         201.8720  112.4963  167.6704 H        64        0    0.0000
   1006 H         202.0865  110.9052  166.9381 H        64        0    0.0000
   1007 H         201.3242  113.5428  165.6510 H        64        0    0.0000
   1008 H         200.5848  110.6948  164.8156 H        64        0    0.0000
   1009 H         199.7558  112.1805  164.3654 H        64        0    0.0000
   1010 H         202.4719  112.9934  163.5766 H        64        0    0.0000
   1011 H         202.8199  111.3405  164.1286 H        64        0    0.0000
   1012 H         203.8370  113.9680  165.3397 H        64        0    0.0000
   1013 H         205.8482  111.8871  165.2273 H        64        0    0.0000
   1014 H         205.8361  113.4482  164.4147 H        64        0    0.0000
   1015 C         205.0780  111.8285  163.1897 C.3      65        0    0.0000
   1016 C         206.3850  111.2923  162.5883 C.3      65        0    0.0000
   1017 H         204.6697  112.5799  162.5017 H        65        0    0.0000
   1018 H         204.3234  111.0376  163.2735 H        65        0    0.0000
   1019 H         206.7504  112.0264  161.8589 H        65        0    0.0000
   1020 H         207.1651  111.1946  163.3524 H        65        0    0.0000
   1021 C         208.8177  109.8836  159.1685 C.3      66        0    0.0000
   1022 C         207.5374  109.2441  159.7112 C.3      66        0    0.0000
   1023 C         207.5555  109.4490  161.2366 C.3      66        0    0.0000
   1024 C         206.2233  109.9342  161.8215 C.3      66        0    0.0000
   1025 C         208.6946  110.4455  161.4746 C.3      66        0    0.0000
   1026 C         209.7211  110.1261  160.3825 C.3      66        0    0.0000
   1027 C         210.5975  108.9100  160.7376 C.3      66        0    0.0000
   1028 H         209.2805  109.2707  158.3891 H        66        0    0.0000
   1029 H         208.5641  110.8483  158.7105 H        66        0    0.0000
   1030 H         206.6612  109.6943  159.2317 H        66        0    0.0000
   1031 H         207.5184  108.1727  159.4799 H        66        0    0.0000
   1032 H         207.8317  108.4956  161.7094 H        66        0    0.0000
   1033 H         205.5007  110.0770  161.0093 H        66        0    0.0000
   1034 H         205.8015  109.1771  162.4926 H        66        0    0.0000
   1035 H         209.1084  110.3616  162.4848 H        66        0    0.0000
   1036 H         208.3344  111.4747  161.3484 H        66        0    0.0000
   1037 H         210.3617  111.0008  160.2125 H        66        0    0.0000
   1038 H         210.1695  107.9837  160.3385 H        66        0    0.0000
   1039 H         210.6398  108.7977  161.8275 H        66        0    0.0000
   1040 C         213.1292  109.0193  156.7022 C.3      67        0    0.0000
   1041 C         212.0114  108.6844  157.6884 C.3      67        0    0.0000
   1042 C         212.0970  109.7220  158.8211 C.3      67        0    0.0000
   1043 C         212.0528  109.0734  160.2109 C.3      67        0    0.0000
   1044 C         213.3877  110.5057  158.5368 C.3      67        0    0.0000
   1045 C         213.5498  110.4583  157.0121 C.3      67        0    0.0000
   1046 C         212.6846  111.4814  156.2538 C.3      67        0    0.0000
   1047 H         213.9775  108.3475  156.8859 H        67        0    0.0000
   1048 H         212.8192  108.8715  155.6629 H        67        0    0.0000
   1049 H         212.1133  107.6538  158.0456 H        67        0    0.0000
   1050 H         211.0354  108.7590  157.1945 H        67        0    0.0000
   1051 H         211.2422  110.4053  158.7176 H        67        0    0.0000
   1052 H         212.6397  109.6625  160.9251 H        67        0    0.0000
   1053 H         212.5170  108.0810  160.1623 H        67        0    0.0000
   1054 H         213.3447  111.5249  158.9328 H        67        0    0.0000
   1055 H         214.2467  110.0073  159.0047 H        67        0    0.0000
   1056 H         214.6029  110.6024  156.7391 H        67        0    0.0000
   1057 H         212.6696  112.4482  156.7684 H        67        0    0.0000
   1058 H         211.6474  111.1260  156.2249 H        67        0    0.0000
   1059 C         213.1653  111.6805  154.7885 C.3      68        0    0.0000
   1060 C         212.7105  113.0042  154.1572 C.3      68        0    0.0000
   1061 H         214.2626  111.6735  154.8113 H        68        0    0.0000
   1062 H         212.8590  110.8220  154.1793 H        68        0    0.0000
   1063 H         211.6269  113.0153  153.9911 H        68        0    0.0000
   1064 H         212.9274  113.8123  154.8674 H        68        0    0.0000
   1065 C         215.8185  115.6086  153.1956 C.3      69        0    0.0000
   1066 C         214.3772  115.5542  153.7091 C.3      69        0    0.0000
   1067 C         213.5463  114.8847  152.6089 C.3      69        0    0.0000
   1068 C         213.4533  113.3622  152.8234 C.3      69        0    0.0000
   1069 C         214.2987  115.3025  151.3391 C.3      69        0    0.0000
   1070 C         215.7773  115.1855  151.7177 C.3      69        0    0.0000
   1071 C         216.6824  116.0103  150.7956 C.3      69        0    0.0000
   1072 H         216.2215  116.6187  153.3306 H        69        0    0.0000
   1073 H         216.4573  114.9254  153.7669 H        69        0    0.0000
   1074 H         214.0172  116.5796  153.8613 H        69        0    0.0000
   1075 H         214.3062  115.0435  154.6748 H        69        0    0.0000
   1076 H         212.5327  115.3056  152.6002 H        69        0    0.0000
   1077 H         214.4654  112.9424  152.8701 H        69        0    0.0000
   1078 H         212.9506  112.8725  151.9826 H        69        0    0.0000
   1079 H         214.0498  116.3436  151.0952 H        69        0    0.0000
   1080 H         214.0527  114.6935  150.4640 H        69        0    0.0000
   1081 H         216.0694  114.1280  151.6523 H        69        0    0.0000
   1082 H         217.7250  115.6871  150.8960 H        69        0    0.0000
   1083 H         216.6457  117.0639  151.0969 H        69        0    0.0000
   1084 C         215.4376  119.3496  147.9285 C.3      70        0    0.0000
   1085 C         215.5002  118.3726  149.0943 C.3      70        0    0.0000
   1086 C         216.3308  117.2167  148.5271 C.3      70        0    0.0000
   1087 C         216.2449  115.9010  149.3067 C.3      70        0    0.0000
   1088 C         215.9451  117.1327  147.0373 C.3      70        0    0.0000
   1089 C         215.1780  118.4332  146.7283 C.3      70        0    0.0000
   1090 C         215.4557  119.0534  145.3555 C.3      70        0    0.0000
   1091 H         214.6435  120.0913  148.0589 H        70        0    0.0000
   1092 H         216.3905  119.8831  147.8413 H        70        0    0.0000
   1093 H         215.9667  118.8195  149.9776 H        70        0    0.0000
   1094 H         214.4872  118.0570  149.3674 H        70        0    0.0000
   1095 H         217.3842  117.5331  148.5634 H        70        0    0.0000
   1096 H         215.2142  115.5291  149.2689 H        70        0    0.0000
   1097 H         216.8696  115.1489  148.8104 H        70        0    0.0000
   1098 H         215.3095  116.2700  146.8101 H        70        0    0.0000
   1099 H         216.8500  117.0178  146.4309 H        70        0    0.0000
   1100 H         214.1072  118.1802  146.7459 H        70        0    0.0000
   1101 H         214.5061  119.3655  144.9049 H        70        0    0.0000
   1102 H         216.0555  119.9617  145.4872 H        70        0    0.0000
   1103 C         216.1936  118.1061  144.3623 C.3      71        0    0.0000
   1104 C         217.2252  118.8154  143.4734 C.3      71        0    0.0000
   1105 H         215.4256  117.6697  143.7109 H        71        0    0.0000
   1106 H         216.6470  117.2738  144.9133 H        71        0    0.0000
   1107 H         216.6921  119.2666  142.6267 H        71        0    0.0000
   1108 H         217.7153  119.6370  144.0088 H        71        0    0.0000
   1109 C         218.3094  117.8584  142.8675 C.3      72        0    0.0000
   1110 C         219.3508  118.5701  141.9921 C.3      72        0    0.0000
   1111 H         217.7762  117.1325  142.2402 H        72        0    0.0000
   1112 H         218.7878  117.2863  143.6711 H        72        0    0.0000
   1113 H         218.8249  119.0386  141.1503 H        72        0    0.0000
   1114 H         219.8471  119.3792  142.5408 H        72        0    0.0000
   1115 C         223.6329  119.4634  140.6525 C.3      73        0    0.0000
   1116 C         222.2576  119.3812  141.3201 C.3      73        0    0.0000
   1117 C         221.4473  118.3588  140.5123 C.3      73        0    0.0000
   1118 C         220.4276  117.6113  141.3760 C.3      73        0    0.0000
   1119 C         222.5295  117.4707  139.8893 C.3      73        0    0.0000
   1120 C         223.5963  118.4873  139.4693 C.3      73        0    0.0000
   1121 C         224.9711  117.8829  139.1706 C.3      73        0    0.0000
   1122 H         223.8537  120.4818  140.3149 H        73        0    0.0000
   1123 H         224.4076  119.1864  141.3775 H        73        0    0.0000
   1124 H         221.7593  120.3566  141.3314 H        73        0    0.0000
   1125 H         222.3765  119.0650  142.3633 H        73        0    0.0000
   1126 H         220.9262  118.8949  139.7057 H        73        0    0.0000
   1127 H         220.9505  117.1022  142.1945 H        73        0    0.0000
   1128 H         219.9287  116.8326  140.7871 H        73        0    0.0000
   1129 H         222.1493  116.9006  139.0357 H        73        0    0.0000
   1130 H         222.9296  116.7632  140.6264 H        73        0    0.0000
   1131 H         223.2327  119.0328  138.5863 H        73        0    0.0000
   1132 H         225.0687  116.9032  139.6528 H        73        0    0.0000
   1133 H         225.7497  118.5251  139.5994 H        73        0    0.0000
   1134 C         228.4865  119.2505  136.3898 C.3      74        0    0.0000
   1135 C         227.2078  119.3572  137.2090 C.3      74        0    0.0000
   1136 C         226.7015  117.9115  137.2420 C.3      74        0    0.0000
   1137 C         225.2344  117.7378  137.6467 C.3      74        0    0.0000
   1138 C         227.0887  117.3146  135.8747 C.3      74        0    0.0000
   1139 C         228.0836  118.3112  135.2482 C.3      74        0    0.0000
   1140 C         229.2455  117.6843  134.4715 C.3      74        0    0.0000
   1141 H         228.8188  120.2261  136.0217 H        74        0    0.0000
   1142 H         229.2874  118.8289  137.0072 H        74        0    0.0000
   1143 H         227.3971  119.7497  138.2129 H        74        0    0.0000
   1144 H         226.5026  120.0296  136.7082 H        74        0    0.0000
   1145 H         227.2992  117.3814  137.9988 H        74        0    0.0000
   1146 H         224.6257  118.4766  137.1121 H        74        0    0.0000
   1147 H         224.8876  116.7496  137.3219 H        74        0    0.0000
   1148 H         226.2297  117.1866  135.2074 H        74        0    0.0000
   1149 H         227.5188  116.3177  136.0191 H        74        0    0.0000
   1150 H         227.5137  118.9142  134.5252 H        74        0    0.0000
   1151 H         229.0900  117.8503  133.3989 H        74        0    0.0000
   1152 H         230.1751  118.2007  134.7386 H        74        0    0.0000
   1153 C         229.4319  116.1574  134.7200 C.3      75        0    0.0000
   1154 C         230.0498  115.4032  133.5338 C.3      75        0    0.0000
   1155 H         230.1092  116.0563  135.5777 H        75        0    0.0000
   1156 H         228.4762  115.7127  135.0212 H        75        0    0.0000
   1157 H         230.0424  116.0154  132.6244 H        75        0    0.0000
   1158 H         231.1030  115.2032  133.7689 H        75        0    0.0000
   1159 C         227.5417  114.0428  130.0651 C.3      76        0    0.0000
   1160 C         228.5352  114.7835  130.9589 C.3      76        0    0.0000
   1161 C         229.3113  113.7092  131.7404 C.3      76        0    0.0000
   1162 C         229.3798  114.0159  133.2422 C.3      76        0    0.0000
   1163 C         228.6003  112.3897  131.4026 C.3      76        0    0.0000
   1164 C         228.0365  112.5960  129.9909 C.3      76        0    0.0000
   1165 C         229.0689  112.4032  128.8651 C.3      76        0    0.0000
   1166 H         226.5530  114.0623  130.5413 H        76        0    0.0000
   1167 H         227.4374  114.5172  129.0843 H        76        0    0.0000
   1168 H         228.0094  115.4891  131.6115 H        76        0    0.0000
   1169 H         229.2320  115.3685  130.3472 H        76        0    0.0000
   1170 H         230.3327  113.6704  131.3361 H        76        0    0.0000
   1171 H         229.9263  113.2243  133.7681 H        76        0    0.0000
   1172 H         228.3642  114.0278  133.6560 H        76        0    0.0000
   1173 H         229.2740  111.5303  131.4748 H        76        0    0.0000
   1174 H         227.7696  112.2156  132.0988 H        76        0    0.0000
   1175 H         227.1865  111.9229  129.8211 H        76        0    0.0000
   1176 H         230.0565  112.7703  129.1643 H        76        0    0.0000
   1177 H         228.7661  112.9948  127.9926 H        76        0    0.0000
   1178 C         232.6505  110.3947  127.2175 C.3      77        0    0.0000
   1179 C         231.5663  111.4132  127.5779 C.3      77        0    0.0000
   1180 C         230.2136  110.7311  127.3053 C.3      77        0    0.0000
   1181 C         229.1796  110.9166  128.4227 C.3      77        0    0.0000
   1182 C         230.5678  109.2581  127.0769 C.3      77        0    0.0000
   1183 C         231.9502  109.2917  126.4164 C.3      77        0    0.0000
   1184 C         231.8734  109.5948  124.9080 C.3      77        0    0.0000
   1185 H         233.4876  110.8607  126.6889 H        77        0    0.0000
   1186 H         233.0540  109.9656  128.1436 H        77        0    0.0000
   1187 H         231.6810  111.7295  128.6205 H        77        0    0.0000
   1188 H         231.6630  112.3100  126.9549 H        77        0    0.0000
   1189 H         229.8072  111.1339  126.3666 H        77        0    0.0000
   1190 H         228.1968  110.5854  128.0667 H        77        0    0.0000
   1191 H         229.4324  110.2904  129.2861 H        77        0    0.0000
   1192 H         229.8172  108.7458  126.4663 H        77        0    0.0000
   1193 H         230.6333  108.7278  128.0358 H        77        0    0.0000
   1194 H         232.4550  108.3295  126.5703 H        77        0    0.0000
   1195 H         232.6638  110.2897  124.6032 H        77        0    0.0000
   1196 H         230.9170  110.0815  124.6828 H        77        0    0.0000
   1197 C         230.2677  104.9222  124.2919 C.3      78        0    0.0000
   1198 C         230.3747  106.2963  123.6485 C.3      78        0    0.0000
   1199 C         231.2281  107.0927  124.6437 C.3      78        0    0.0000
   1200 C         231.9700  108.2982  124.0527 C.3      78        0    0.0000
   1201 C         232.1170  106.0528  125.3565 C.3      78        0    0.0000
   1202 C         231.6844  104.6777  124.8156 C.3      78        0    0.0000
   1203 C         231.7327  103.5424  125.8411 C.3      78        0    0.0000
   1204 H         229.5403  104.9429  125.1126 H        78        0    0.0000
   1205 H         229.9538  104.1575  123.5749 H        78        0    0.0000
   1206 H         230.8581  106.2056  122.6698 H        78        0    0.0000
   1207 H         229.3920  106.7533  123.4952 H        78        0    0.0000
   1208 H         230.5428  107.4940  125.4052 H        78        0    0.0000
   1209 H         233.0279  108.0384  123.9276 H        78        0    0.0000
   1210 H         231.5766  108.5046  123.0502 H        78        0    0.0000
   1211 H         231.9513  106.1236  126.4387 H        78        0    0.0000
   1212 H         233.1869  106.2151  125.1885 H        78        0    0.0000
   1213 H         232.3291  104.4271  123.9606 H        78        0    0.0000
   1214 H         230.7893  103.4952  126.3978 H        78        0    0.0000
   1215 H         231.8369  102.5850  125.3169 H        78        0    0.0000
   1216 C         233.7223  100.3434  128.4440 C.3      79        0    0.0000
   1217 C         232.7159  101.3076  127.8317 C.3      79        0    0.0000
   1218 C         233.6103  102.3771  127.1962 C.3      79        0    0.0000
   1219 C         232.9115  103.6936  126.8431 C.3      79        0    0.0000
   1220 C         234.8252  102.5011  128.1365 C.3      79        0    0.0000
   1221 C         234.7536  101.2828  129.0778 C.3      79        0    0.0000
   1222 C         236.0988  100.6406  129.4302 C.3      79        0    0.0000
   1223 H         233.2583   99.6832  129.1833 H        79        0    0.0000
   1224 H         234.1616   99.7189  127.6584 H        79        0    0.0000
   1225 H         232.0753  100.8155  127.0933 H        79        0    0.0000
   1226 H         232.0740  101.7208  128.6175 H        79        0    0.0000
   1227 H         233.9847  101.9585  126.2498 H        79        0    0.0000
   1228 H         232.5348  104.1569  127.7628 H        79        0    0.0000
   1229 H         233.6471  104.3875  126.4193 H        79        0    0.0000
   1230 H         234.8129  103.4224  128.7287 H        79        0    0.0000
   1231 H         235.7458  102.5274  127.5435 H        79        0    0.0000
   1232 H         234.3204  101.6399  130.0243 H        79        0    0.0000
   1233 H         236.0826  100.3298  130.4816 H        79        0    0.0000
   1234 H         236.2280   99.7293  128.8343 H        79        0    0.0000
   1235 C         237.3304  101.5672  129.2010 C.3      80        0    0.0000
   1236 C         237.9715  101.4210  127.8136 C.3      80        0    0.0000
   1237 H         238.0798  101.2899  129.9533 H        80        0    0.0000
   1238 H         237.0524  102.6081  129.4043 H        80        0    0.0000
   1239 H         238.9391  101.9389  127.8294 H        80        0    0.0000
   1240 H         238.1820  100.3707  127.5801 H        80        0    0.0000
   1241 C         234.5551  104.7911  127.0194 C.3      81        0    0.0000
   1242 C         235.4174  103.8744  126.1477 C.3      81        0    0.0000
   1243 C         236.6134  103.4570  127.0133 C.3      81        0    0.0000
   1244 C         237.1337  102.0625  126.6537 C.3      81        0    0.0000
   1245 C         236.0727  103.5882  128.4410 C.3      81        0    0.0000
   1246 C         235.2662  104.8895  128.3755 C.3      81        0    0.0000
   1247 C         234.2852  105.0912  129.5338 C.3      81        0    0.0000
   1248 H         234.4373  105.7807  126.5650 H        81        0    0.0000
   1249 H         233.5523  104.3595  127.1225 H        81        0    0.0000
   1250 H         235.7503  104.3848  125.2375 H        81        0    0.0000
   1251 H         234.8257  103.0056  125.8350 H        81        0    0.0000
   1252 H         237.4138  104.1979  126.8719 H        81        0    0.0000
   1253 H         237.7683  102.1317  125.7621 H        81        0    0.0000
   1254 H         236.2990  101.3998  126.3969 H        81        0    0.0000
   1255 H         236.8783  103.6432  129.1800 H        81        0    0.0000
   1256 H         235.4273  102.7384  128.6964 H        81        0    0.0000
   1257 H         235.9678  105.7353  128.3338 H        81        0    0.0000
   1258 H         233.6416  104.2106  129.6447 H        81        0    0.0000
   1259 H         233.6262  105.9378  129.3068 H        81        0    0.0000
   1260 H         234.7931  105.2905  130.4774 H        81        0    0.0000
   1261 H         141.7153  248.9050  146.7518 H         0        0    0.0000
@<TRIPOS>BOND
     1     1     2      1
     2     1     6      1
     3     1     8      1
     4     1     9      1
     5     2     3      1
     6     2    10      1
     7     2    11      1
     8     3     4      1
     9     3     5      1
    10     3    12      1
    11     4    13      1
    12     4    14      1
    13     4  1261      H
    14     5     6      1
    15     5    15      1
    16     5    16      1
    17     6     7      1
    18     6    17      1
    19     7    18      1
    20     7    19      1
    21     7    23      1
    22    20    21      1
    23    20    25      1
    24    20    27      1
    25    20    28      1
    26    21    22      1
    27    21    29      1
    28    21    30      1
    29    22    23      1
    30    22    24      1
    31    22    31      1
    32    23    32      1
    33    23    33      1
    34    24    25      1
    35    24    34      1
    36    24    35      1
    37    25    26      1
    38    25    36      1
    39    26    37      1
    40    26    38      1
    41    26    39      1
    42    39    40      1
    43    39    41      1
    44    39    42      1
    45    40    43      1
    46    40    44      1
    47    40    48      1
    48    45    46      1
    49    45    50      1
    50    45    52      1
    51    45    53      1
    52    46    47      1
    53    46    54      1
    54    46    55      1
    55    47    48      1
    56    47    49      1
    57    47    56      1
    58    48    57      1
    59    48    58      1
    60    49    50      1
    61    49    59      1
    62    49    60      1
    63    50    51      1
    64    50    61      1
    65    51    62      1
    66    51    63      1
    67    51    64      1
    68    64    65      1
    69    64    66      1
    70    64    67      1
    71    65    68      1
    72    65    69      1
    73    65    73      1
    74    70    71      1
    75    70    75      1
    76    70    77      1
    77    70    78      1
    78    71    72      1
    79    71    79      1
    80    71    80      1
    81    72    73      1
    82    72    74      1
    83    72    81      1
    84    73    82      1
    85    73    83      1
    86    74    75      1
    87    74    84      1
    88    74    85      1
    89    75    76      1
    90    75    86      1
    91    76    87      1
    92    76    88      1
    93    76    92      1
    94    89    90      1
    95    89    94      1
    96    89    96      1
    97    89    97      1
    98    90    91      1
    99    90    98      1
   100    90    99      1
   101    91    92      1
   102    91    93      1
   103    91   100      1
   104    92   101      1
   105    92   102      1
   106    93    94      1
   107    93   103      1
   108    93   104      1
   109    94    95      1
   110    94   105      1
   111    95   106      1
   112    95   107      1
   113    95   108      1
   114   108   109      1
   115   108   110      1
   116   108   111      1
   117   109   112      1
   118   109   113      1
   119   109   114      1
   120   114   115      1
   121   114   116      1
   122   114   117      1
   123   115   118      1
   124   115   119      1
   125   115   120      1
   126   120   121      1
   127   120   122      1
   128   120   123      1
   129   121   124      1
   130   121   125      1
   131   121   126      1
   132   126   127      1
   133   126   128      1
   134   126   129      1
   135   127   130      1
   136   127   131      1
   137   127   135      1
   138   132   133      1
   139   132   137      1
   140   132   139      1
   141   132   140      1
   142   133   134      1
   143   133   141      1
   144   133   142      1
   145   134   135      1
   146   134   136      1
   147   134   143      1
   148   135   144      1
   149   135   145      1
   150   136   137      1
   151   136   146      1
   152   136   147      1
   153   137   138      1
   154   137   148      1
   155   138   149      1
   156   138   150      1
   157   138   154      1
   158   151   152      1
   159   151   156      1
   160   151   158      1
   161   151   159      1
   162   152   153      1
   163   152   160      1
   164   152   161      1
   165   153   154      1
   166   153   155      1
   167   153   162      1
   168   154   163      1
   169   154   164      1
   170   155   156      1
   171   155   165      1
   172   155   166      1
   173   156   157      1
   174   156   167      1
   175   157   168      1
   176   157   169      1
   177   157   170      1
   178   170   171      1
   179   170   172      1
   180   170   173      1
   181   171   174      1
   182   171   175      1
   183   171   179      1
   184   176   177      1
   185   176   181      1
   186   176   183      1
   187   176   184      1
   188   177   178      1
   189   177   185      1
   190   177   186      1
   191   178   179      1
   192   178   180      1
   193   178   187      1
   194   179   188      1
   195   179   189      1
   196   180   181      1
   197   180   190      1
   198   180   191      1
   199   181   182      1
   200   181   192      1
   201   182   193      1
   202   182   194      1
   203   182   195      1
   204   195   196      1
   205   195   197      1
   206   195   198      1
   207   196   199      1
   208   196   200      1
   209   196   204      1
   210   201   202      1
   211   201   206      1
   212   201   208      1
   213   201   209      1
   214   202   203      1
   215   202   210      1
   216   202   211      1
   217   203   204      1
   218   203   205      1
   219   203   212      1
   220   204   213      1
   221   204   214      1
   222   205   206      1
   223   205   215      1
   224   205   216      1
   225   206   207      1
   226   206   217      1
   227   207   218      1
   228   207   219      1
   229   207   223      1
   230   220   221      1
   231   220   225      1
   232   220   227      1
   233   220   228      1
   234   221   222      1
   235   221   229      1
   236   221   230      1
   237   222   223      1
   238   222   224      1
   239   222   231      1
   240   223   232      1
   241   223   233      1
   242   224   225      1
   243   224   234      1
   244   224   235      1
   245   225   226      1
   246   225   236      1
   247   226   237      1
   248   226   238      1
   249   226   242      1
   250   239   240      1
   251   239   244      1
   252   239   246      1
   253   239   247      1
   254   240   241      1
   255   240   248      1
   256   240   249      1
   257   241   242      1
   258   241   243      1
   259   241   250      1
   260   242   251      1
   261   242   252      1
   262   243   244      1
   263   243   253      1
   264   243   254      1
   265   244   245      1
   266   244   255      1
   267   245   256      1
   268   245   257      1
   269   245   261      1
   270   258   259      1
   271   258   263      1
   272   258   265      1
   273   258   266      1
   274   259   260      1
   275   259   267      1
   276   259   268      1
   277   260   261      1
   278   260   262      1
   279   260   269      1
   280   261   270      1
   281   261   271      1
   282   262   263      1
   283   262   272      1
   284   262   273      1
   285   263   264      1
   286   263   274      1
   287   264   275      1
   288   264   276      1
   289   264   277      1
   290   277   278      1
   291   277   279      1
   292   277   280      1
   293   278   281      1
   294   278   282      1
   295   278   286      1
   296   283   284      1
   297   283   288      1
   298   283   290      1
   299   283   291      1
   300   284   285      1
   301   284   292      1
   302   284   293      1
   303   285   286      1
   304   285   287      1
   305   285   294      1
   306   286   295      1
   307   286   296      1
   308   287   288      1
   309   287   297      1
   310   287   298      1
   311   288   289      1
   312   288   299      1
   313   289   300      1
   314   289   301      1
   315   289   305      1
   316   302   303      1
   317   302   307      1
   318   302   309      1
   319   302   310      1
   320   303   304      1
   321   303   311      1
   322   303   312      1
   323   304   305      1
   324   304   306      1
   325   304   313      1
   326   305   314      1
   327   305   315      1
   328   306   307      1
   329   306   316      1
   330   306   317      1
   331   307   308      1
   332   307   318      1
   333   308   319      1
   334   308   320      1
   335   308   324      1
   336   321   322      1
   337   321   326      1
   338   321   328      1
   339   321   329      1
   340   322   323      1
   341   322   330      1
   342   322   331      1
   343   323   324      1
   344   323   325      1
   345   323   332      1
   346   324   333      1
   347   324   334      1
   348   325   326      1
   349   325   335      1
   350   325   336      1
   351   326   327      1
   352   326   337      1
   353   327   338      1
   354   327   339      1
   355   327   343      1
   356   340   341      1
   357   340   345      1
   358   340   347      1
   359   340   348      1
   360   341   342      1
   361   341   349      1
   362   341   350      1
   363   342   343      1
   364   342   344      1
   365   342   351      1
   366   343   352      1
   367   343   353      1
   368   344   345      1
   369   344   354      1
   370   344   355      1
   371   345   346      1
   372   345   356      1
   373   346   357      1
   374   346   358      1
   375   346   362      1
   376   359   360      1
   377   359   364      1
   378   359   366      1
   379   359   367      1
   380   360   361      1
   381   360   368      1
   382   360   369      1
   383   361   362      1
   384   361   363      1
   385   361   370      1
   386   362   371      1
   387   362   372      1
   388   363   364      1
   389   363   373      1
   390   363   374      1
   391   364   365      1
   392   364   375      1
   393   365   376      1
   394   365   377      1
   395   365   381      1
   396   378   379      1
   397   378   383      1
   398   378   385      1
   399   378   386      1
   400   379   380      1
   401   379   387      1
   402   379   388      1
   403   380   381      1
   404   380   382      1
   405   380   389      1
   406   381   390      1
   407   381   391      1
   408   382   383      1
   409   382   392      1
   410   382   393      1
   411   383   384      1
   412   383   394      1
   413   384   395      1
   414   384   396      1
   415   384   397      1
   416   397   398      1
   417   397   399      1
   418   397   400      1
   419   398   401      1
   420   398   402      1
   421   398   406      1
   422   403   404      1
   423   403   408      1
   424   403   410      1
   425   403   411      1
   426   404   405      1
   427   404   412      1
   428   404   413      1
   429   405   406      1
   430   405   407      1
   431   405   414      1
   432   406   415      1
   433   406   416      1
   434   407   408      1
   435   407   417      1
   436   407   418      1
   437   408   409      1
   438   408   419      1
   439   409   420      1
   440   409   421      1
   441   409   425      1
   442   422   423      1
   443   422   427      1
   444   422   429      1
   445   422   430      1
   446   423   424      1
   447   423   431      1
   448   423   432      1
   449   424   425      1
   450   424   426      1
   451   424   433      1
   452   425   434      1
   453   425   435      1
   454   426   427      1
   455   426   436      1
   456   426   437      1
   457   427   428      1
   458   427   438      1
   459   428   439      1
   460   428   440      1
   461   428   444      1
   462   441   442      1
   463   441   446      1
   464   441   448      1
   465   441   449      1
   466   442   443      1
   467   442   450      1
   468   442   451      1
   469   443   444      1
   470   443   445      1
   471   443   452      1
   472   444   453      1
   473   444   454      1
   474   445   446      1
   475   445   455      1
   476   445   456      1
   477   446   447      1
   478   446   457      1
   479   447   458      1
   480   447   459      1
   481   447   463      1
   482   460   461      1
   483   460   465      1
   484   460   467      1
   485   460   468      1
   486   461   462      1
   487   461   469      1
   488   461   470      1
   489   462   463      1
   490   462   464      1
   491   462   471      1
   492   463   472      1
   493   463   473      1
   494   464   465      1
   495   464   474      1
   496   464   475      1
   497   465   466      1
   498   465   476      1
   499   466   477      1
   500   466   478      1
   501   466   479      1
   502   479   480      1
   503   479   481      1
   504   479   482      1
   505   480   483      1
   506   480   484      1
   507   480   488      1
   508   485   486      1
   509   485   490      1
   510   485   492      1
   511   485   493      1
   512   486   487      1
   513   486   494      1
   514   486   495      1
   515   487   488      1
   516   487   489      1
   517   487   496      1
   518   488   497      1
   519   488   498      1
   520   489   490      1
   521   489   499      1
   522   489   500      1
   523   490   491      1
   524   490   501      1
   525   491   502      1
   526   491   503      1
   527   491   507      1
   528   504   505      1
   529   504   509      1
   530   504   511      1
   531   504   512      1
   532   505   506      1
   533   505   513      1
   534   505   514      1
   535   506   507      1
   536   506   508      1
   537   506   515      1
   538   507   516      1
   539   507   517      1
   540   508   509      1
   541   508   518      1
   542   508   519      1
   543   509   510      1
   544   509   520      1
   545   510   521      1
   546   510   522      1
   547   510   526      1
   548   523   524      1
   549   523   528      1
   550   523   530      1
   551   523   531      1
   552   524   525      1
   553   524   532      1
   554   524   533      1
   555   525   526      1
   556   525   527      1
   557   525   534      1
   558   526   535      1
   559   526   536      1
   560   527   528      1
   561   527   537      1
   562   527   538      1
   563   528   529      1
   564   528   539      1
   565   529   540      1
   566   529   541      1
   567   529   545      1
   568   542   543      1
   569   542   547      1
   570   542   549      1
   571   542   550      1
   572   543   544      1
   573   543   551      1
   574   543   552      1
   575   544   545      1
   576   544   546      1
   577   544   553      1
   578   545   554      1
   579   545   555      1
   580   546   547      1
   581   546   556      1
   582   546   557      1
   583   547   548      1
   584   547   558      1
   585   548   559      1
   586   548   560      1
   587   548   564      1
   588   561   562      1
   589   561   566      1
   590   561   568      1
   591   561   569      1
   592   562   563      1
   593   562   570      1
   594   562   571      1
   595   563   564      1
   596   563   565      1
   597   563   572      1
   598   564   573      1
   599   564   574      1
   600   565   566      1
   601   565   575      1
   602   565   576      1
   603   566   567      1
   604   566   577      1
   605   567   578      1
   606   567   579      1
   607   567   583      1
   608   580   581      1
   609   580   585      1
   610   580   587      1
   611   580   588      1
   612   581   582      1
   613   581   589      1
   614   581   590      1
   615   582   583      1
   616   582   584      1
   617   582   591      1
   618   583   592      1
   619   583   593      1
   620   584   585      1
   621   584   594      1
   622   584   595      1
   623   585   586      1
   624   585   596      1
   625   586   597      1
   626   586   598      1
   627   586   602      1
   628   599   600      1
   629   599   604      1
   630   599   606      1
   631   599   607      1
   632   600   601      1
   633   600   608      1
   634   600   609      1
   635   601   602      1
   636   601   603      1
   637   601   610      1
   638   602   611      1
   639   602   612      1
   640   603   604      1
   641   603   613      1
   642   603   614      1
   643   604   605      1
   644   604   615      1
   645   605   616      1
   646   605   617      1
   647   605   621      1
   648   618   619      1
   649   618   623      1
   650   618   625      1
   651   618   626      1
   652   619   620      1
   653   619   627      1
   654   619   628      1
   655   620   621      1
   656   620   622      1
   657   620   629      1
   658   621   630      1
   659   621   631      1
   660   622   623      1
   661   622   632      1
   662   622   633      1
   663   623   624      1
   664   623   634      1
   665   624   635      1
   666   624   636      1
   667   624   640      1
   668   637   638      1
   669   637   642      1
   670   637   644      1
   671   637   645      1
   672   638   639      1
   673   638   646      1
   674   638   647      1
   675   639   640      1
   676   639   641      1
   677   639   648      1
   678   640   649      1
   679   640   650      1
   680   641   642      1
   681   641   651      1
   682   641   652      1
   683   642   643      1
   684   642   653      1
   685   643   654      1
   686   643   655      1
   687   643   659      1
   688   656   657      1
   689   656   661      1
   690   656   663      1
   691   656   664      1
   692   657   658      1
   693   657   665      1
   694   657   666      1
   695   658   659      1
   696   658   660      1
   697   658   667      1
   698   659   668      1
   699   659   669      1
   700   660   661      1
   701   660   670      1
   702   660   671      1
   703   661   662      1
   704   661   672      1
   705   662   673      1
   706   662   674      1
   707   662   675      1
   708   675   676      1
   709   675   677      1
   710   675   678      1
   711   676   679      1
   712   676   680      1
   713   676   684      1
   714   681   682      1
   715   681   686      1
   716   681   688      1
   717   681   689      1
   718   682   683      1
   719   682   690      1
   720   682   691      1
   721   683   684      1
   722   683   685      1
   723   683   692      1
   724   684   693      1
   725   684   694      1
   726   685   686      1
   727   685   695      1
   728   685   696      1
   729   686   687      1
   730   686   697      1
   731   687   698      1
   732   687   699      1
   733   687   703      1
   734   700   701      1
   735   700   705      1
   736   700   707      1
   737   700   708      1
   738   701   702      1
   739   701   709      1
   740   701   710      1
   741   702   703      1
   742   702   704      1
   743   702   711      1
   744   703   712      1
   745   703   713      1
   746   704   705      1
   747   704   714      1
   748   704   715      1
   749   705   706      1
   750   705   716      1
   751   706   717      1
   752   706   718      1
   753   706   722      1
   754   719   720      1
   755   719   724      1
   756   719   726      1
   757   719   727      1
   758   720   721      1
   759   720   728      1
   760   720   729      1
   761   721   722      1
   762   721   723      1
   763   721   730      1
   764   722   731      1
   765   722   732      1
   766   723   724      1
   767   723   733      1
   768   723   734      1
   769   724   725      1
   770   724   735      1
   771   725   736      1
   772   725   737      1
   773   725   741      1
   774   738   739      1
   775   738   743      1
   776   738   745      1
   777   738   746      1
   778   739   740      1
   779   739   747      1
   780   739   748      1
   781   740   741      1
   782   740   742      1
   783   740   749      1
   784   741   750      1
   785   741   751      1
   786   742   743      1
   787   742   752      1
   788   742   753      1
   789   743   744      1
   790   743   754      1
   791   744   755      1
   792   744   756      1
   793   744   760      1
   794   757   758      1
   795   757   762      1
   796   757   764      1
   797   757   765      1
   798   758   759      1
   799   758   766      1
   800   758   767      1
   801   759   760      1
   802   759   761      1
   803   759   768      1
   804   760   769      1
   805   760   770      1
   806   761   762      1
   807   761   771      1
   808   761   772      1
   809   762   763      1
   810   762   773      1
   811   763   774      1
   812   763   775      1
   813   763   779      1
   814   776   777      1
   815   776   781      1
   816   776   783      1
   817   776   784      1
   818   777   778      1
   819   777   785      1
   820   777   786      1
   821   778   779      1
   822   778   780      1
   823   778   787      1
   824   779   788      1
   825   779   789      1
   826   780   781      1
   827   780   790      1
   828   780   791      1
   829   781   782      1
   830   781   792      1
   831   782   793      1
   832   782   794      1
   833   782   795      1
   834   795   796      1
   835   795   797      1
   836   795   798      1
   837   796   799      1
   838   796   800      1
   839   796   804      1
   840   801   802      1
   841   801   806      1
   842   801   808      1
   843   801   809      1
   844   802   803      1
   845   802   810      1
   846   802   811      1
   847   803   804      1
   848   803   805      1
   849   803   812      1
   850   804   813      1
   851   804   814      1
   852   805   806      1
   853   805   815      1
   854   805   816      1
   855   806   807      1
   856   806   817      1
   857   807   818      1
   858   807   819      1
   859   807   823      1
   860   820   821      1
   861   820   825      1
   862   820   827      1
   863   820   828      1
   864   821   822      1
   865   821   829      1
   866   821   830      1
   867   822   823      1
   868   822   824      1
   869   822   831      1
   870   823   832      1
   871   823   833      1
   872   824   825      1
   873   824   834      1
   874   824   835      1
   875   825   826      1
   876   825   836      1
   877   826   837      1
   878   826   838      1
   879   826   839      1
   880   839   840      1
   881   839   841      1
   882   839   842      1
   883   840   843      1
   884   840   844      1
   885   840   848      1
   886   845   846      1
   887   845   850      1
   888   845   852      1
   889   845   853      1
   890   846   847      1
   891   846   854      1
   892   846   855      1
   893   847   848      1
   894   847   849      1
   895   847   856      1
   896   848   857      1
   897   848   858      1
   898   849   850      1
   899   849   859      1
   900   849   860      1
   901   850   851      1
   902   850   861      1
   903   851   862      1
   904   851   863      1
   905   851   867      1
   906   864   865      1
   907   864   869      1
   908   864   871      1
   909   864   872      1
   910   865   866      1
   911   865   873      1
   912   865   874      1
   913   866   867      1
   914   866   868      1
   915   866   875      1
   916   867   876      1
   917   867   877      1
   918   868   869      1
   919   868   878      1
   920   868   879      1
   921   869   870      1
   922   869   880      1
   923   870   881      1
   924   870   882      1
   925   870   883      1
   926   883   884      1
   927   883   885      1
   928   883   886      1
   929   884   887      1
   930   884   888      1
   931   884   892      1
   932   889   890      1
   933   889   894      1
   934   889   896      1
   935   889   897      1
   936   890   891      1
   937   890   898      1
   938   890   899      1
   939   891   892      1
   940   891   893      1
   941   891   900      1
   942   892   901      1
   943   892   902      1
   944   893   894      1
   945   893   903      1
   946   893   904      1
   947   894   895      1
   948   894   905      1
   949   895   906      1
   950   895   907      1
   951   895   908      1
   952   908   909      1
   953   908   910      1
   954   908   911      1
   955   909   912      1
   956   909   913      1
   957   909   917      1
   958   914   915      1
   959   914   919      1
   960   914   921      1
   961   914   922      1
   962   915   916      1
   963   915   923      1
   964   915   924      1
   965   916   917      1
   966   916   918      1
   967   916   925      1
   968   917   926      1
   969   917   927      1
   970   918   919      1
   971   918   928      1
   972   918   929      1
   973   919   920      1
   974   919   930      1
   975   920   931      1
   976   920   932      1
   977   920   936      1
   978   933   934      1
   979   933   938      1
   980   933   940      1
   981   933   941      1
   982   934   935      1
   983   934   942      1
   984   934   943      1
   985   935   936      1
   986   935   937      1
   987   935   944      1
   988   936   945      1
   989   936   946      1
   990   937   938      1
   991   937   947      1
   992   937   948      1
   993   938   939      1
   994   938   949      1
   995   939   950      1
   996   939   951      1
   997   939   955      1
   998   952   953      1
   999   952   957      1
  1000   952   959      1
  1001   952   960      1
  1002   953   954      1
  1003   953   961      1
  1004   953   962      1
  1005   954   955      1
  1006   954   956      1
  1007   954   963      1
  1008   955   964      1
  1009   955   965      1
  1010   956   957      1
  1011   956   966      1
  1012   956   967      1
  1013   957   958      1
  1014   957   968      1
  1015   958   969      1
  1016   958   970      1
  1017   958   971      1
  1018   971   972      1
  1019   971   973      1
  1020   971   974      1
  1021   972   975      1
  1022   972   976      1
  1023   972   980      1
  1024   977   978      1
  1025   977   982      1
  1026   977   984      1
  1027   977   985      1
  1028   978   979      1
  1029   978   986      1
  1030   978   987      1
  1031   979   980      1
  1032   979   981      1
  1033   979   988      1
  1034   980   989      1
  1035   980   990      1
  1036   981   982      1
  1037   981   991      1
  1038   981   992      1
  1039   982   983      1
  1040   982   993      1
  1041   983   994      1
  1042   983   995      1
  1043   983   999      1
  1044   996   997      1
  1045   996  1001      1
  1046   996  1003      1
  1047   996  1004      1
  1048   997   998      1
  1049   997  1005      1
  1050   997  1006      1
  1051   998   999      1
  1052   998  1000      1
  1053   998  1007      1
  1054   999  1008      1
  1055   999  1009      1
  1056  1000  1001      1
  1057  1000  1010      1
  1058  1000  1011      1
  1059  1001  1002      1
  1060  1001  1012      1
  1061  1002  1013      1
  1062  1002  1014      1
  1063  1002  1015      1
  1064  1015  1016      1
  1065  1015  1017      1
  1066  1015  1018      1
  1067  1016  1019      1
  1068  1016  1020      1
  1069  1016  1024      1
  1070  1021  1022      1
  1071  1021  1026      1
  1072  1021  1028      1
  1073  1021  1029      1
  1074  1022  1023      1
  1075  1022  1030      1
  1076  1022  1031      1
  1077  1023  1024      1
  1078  1023  1025      1
  1079  1023  1032      1
  1080  1024  1033      1
  1081  1024  1034      1
  1082  1025  1026      1
  1083  1025  1035      1
  1084  1025  1036      1
  1085  1026  1027      1
  1086  1026  1037      1
  1087  1027  1038      1
  1088  1027  1039      1
  1089  1027  1043      1
  1090  1040  1041      1
  1091  1040  1045      1
  1092  1040  1047      1
  1093  1040  1048      1
  1094  1041  1042      1
  1095  1041  1049      1
  1096  1041  1050      1
  1097  1042  1043      1
  1098  1042  1044      1
  1099  1042  1051      1
  1100  1043  1052      1
  1101  1043  1053      1
  1102  1044  1045      1
  1103  1044  1054      1
  1104  1044  1055      1
  1105  1045  1046      1
  1106  1045  1056      1
  1107  1046  1057      1
  1108  1046  1058      1
  1109  1046  1059      1
  1110  1059  1060      1
  1111  1059  1061      1
  1112  1059  1062      1
  1113  1060  1063      1
  1114  1060  1064      1
  1115  1060  1068      1
  1116  1065  1066      1
  1117  1065  1070      1
  1118  1065  1072      1
  1119  1065  1073      1
  1120  1066  1067      1
  1121  1066  1074      1
  1122  1066  1075      1
  1123  1067  1068      1
  1124  1067  1069      1
  1125  1067  1076      1
  1126  1068  1077      1
  1127  1068  1078      1
  1128  1069  1070      1
  1129  1069  1079      1
  1130  1069  1080      1
  1131  1070  1071      1
  1132  1070  1081      1
  1133  1071  1082      1
  1134  1071  1083      1
  1135  1071  1087      1
  1136  1084  1085      1
  1137  1084  1089      1
  1138  1084  1091      1
  1139  1084  1092      1
  1140  1085  1086      1
  1141  1085  1093      1
  1142  1085  1094      1
  1143  1086  1087      1
  1144  1086  1088      1
  1145  1086  1095      1
  1146  1087  1096      1
  1147  1087  1097      1
  1148  1088  1089      1
  1149  1088  1098      1
  1150  1088  1099      1
  1151  1089  1090      1
  1152  1089  1100      1
  1153  1090  1101      1
  1154  1090  1102      1
  1155  1090  1103      1
  1156  1103  1104      1
  1157  1103  1105      1
  1158  1103  1106      1
  1159  1104  1107      1
  1160  1104  1108      1
  1161  1104  1109      1
  1162  1109  1110      1
  1163  1109  1111      1
  1164  1109  1112      1
  1165  1110  1113      1
  1166  1110  1114      1
  1167  1110  1118      1
  1168  1115  1116      1
  1169  1115  1120      1
  1170  1115  1122      1
  1171  1115  1123      1
  1172  1116  1117      1
  1173  1116  1124      1
  1174  1116  1125      1
  1175  1117  1118      1
  1176  1117  1119      1
  1177  1117  1126      1
  1178  1118  1127      1
  1179  1118  1128      1
  1180  1119  1120      1
  1181  1119  1129      1
  1182  1119  1130      1
  1183  1120  1121      1
  1184  1120  1131      1
  1185  1121  1132      1
  1186  1121  1133      1
  1187  1121  1137      1
  1188  1134  1135      1
  1189  1134  1139      1
  1190  1134  1141      1
  1191  1134  1142      1
  1192  1135  1136      1
  1193  1135  1143      1
  1194  1135  1144      1
  1195  1136  1137      1
  1196  1136  1138      1
  1197  1136  1145      1
  1198  1137  1146      1
  1199  1137  1147      1
  1200  1138  1139      1
  1201  1138  1148      1
  1202  1138  1149      1
  1203  1139  1140      1
  1204  1139  1150      1
  1205  1140  1151      1
  1206  1140  1152      1
  1207  1140  1153      1
  1208  1153  1154      1
  1209  1153  1155      1
  1210  1153  1156      1
  1211  1154  1157      1
  1212  1154  1158      1
  1213  1154  1162      1
  1214  1159  1160      1
  1215  1159  1164      1
  1216  1159  1166      1
  1217  1159  1167      1
  1218  1160  1161      1
  1219  1160  1168      1
  1220  1160  1169      1
  1221  1161  1162      1
  1222  1161  1163      1
  1223  1161  1170      1
  1224  1162  1171      1
  1225  1162  1172      1
  1226  1163  1164      1
  1227  1163  1173      1
  1228  1163  1174      1
  1229  1164  1165      1
  1230  1164  1175      1
  1231  1165  1176      1
  1232  1165  1177      1
  1233  1165  1181      1
  1234  1178  1179      1
  1235  1178  1183      1
  1236  1178  1185      1
  1237  1178  1186      1
  1238  1179  1180      1
  1239  1179  1187      1
  1240  1179  1188      1
  1241  1180  1181      1
  1242  1180  1182      1
  1243  1180  1189      1
  1244  1181  1190      1
  1245  1181  1191      1
  1246  1182  1183      1
  1247  1182  1192      1
  1248  1182  1193      1
  1249  1183  1184      1
  1250  1183  1194      1
  1251  1184  1195      1
  1252  1184  1196      1
  1253  1184  1200      1
  1254  1197  1198      1
  1255  1197  1202      1
  1256  1197  1204      1
  1257  1197  1205      1
  1258  1198  1199      1
  1259  1198  1206      1
  1260  1198  1207      1
  1261  1199  1200      1
  1262  1199  1201      1
  1263  1199  1208      1
  1264  1200  1209      1
  1265  1200  1210      1
  1266  1201  1202      1
  1267  1201  1211      1
  1268  1201  1212      1
  1269  1202  1203      1
  1270  1202  1213      1
  1271  1203  1214      1
  1272  1203  1215      1
  1273  1203  1219      1
  1274  1216  1217      1
  1275  1216  1221      1
  1276  1216  1223      1
  1277  1216  1224      1
  1278  1217  1218      1
  1279  1217  1225      1
  1280  1217  1226      1
  1281  1218  1219      1
  1282  1218  1220      1
  1283  1218  1227      1
  1284  1219  1228      1
  1285  1219  1229      1
  1286  1220  1221      1
  1287  1220  1230      1
  1288  1220  1231      1
  1289  1221  1222      1
  1290  1221  1232      1
  1291  1222  1233      1
  1292  1222  1234      1
  1293  1222  1235      1
  1294  1235  1236      1
  1295  1235  1237      1
  1296  1235  1238      1
  1297  1236  1239      1
  1298  1236  1240      1
  1299  1236  1244      1
  1300  1241  1242      1
  1301  1241  1246      1
  1302  1241  1248      1
  1303  1241  1249      1
  1304  1242  1243      1
  1305  1242  1250      1
  1306  1242  1251      1
  1307  1243  1244      1
  1308  1243  1245      1
  1309  1243  1252      1
  1310  1244  1253      1
  1311  1244  1254      1
  1312  1245  1246      1
  1313  1245  1255      1
  1314  1245  1256      1
  1315  1246  1247      1
  1316  1246  1257      1
  1317  1247  1258      1
  1318  1247  1259      1
  1319  1247  1260      H
