###
### Created by PolyChef-cpp17 on Wed Feb 26 21:14:13 2025
###

@<TRIPOS>MOLECULE
NO_INFO
884 925 1 0 0
SMALL
USER_CHARGES


@<TRIPOS>ATOM
      1 C         100.6821   82.7791  199.9568 C.3       0        0    0.0000
      2 C         100.8589   81.2825  199.7415 C.3       0        0    0.0000
      3 C         100.8988   80.7339  201.1716 C.3       0        0    0.0000
      4 C         101.4624   79.3171  201.3168 C.3       0        0    0.0000
      5 C         101.6091   81.8200  202.0031 C.3       0        0    0.0000
      6 C         101.6475   83.0750  201.1092 C.3       0        0    0.0000
      7 C         101.4213   84.4069  201.8309 C.3       0        0    0.0000
      8 H         100.9267   83.3532  199.0577 H         0        0    0.0000
      9 H          99.6419   82.9940  200.2251 H         0        0    0.0000
     10 H         100.0375   80.8534  199.1593 H         0        0    0.0000
     11 H         101.7933   81.0942  199.2016 H         0        0    0.0000
     12 H          99.8581   80.6941  201.5271 H         0        0    0.0000
     13 H         102.3218   79.2031  200.6454 H         0        0    0.0000
     14 H         101.8403   79.1845  202.3375 H         0        0    0.0000
     15 H         102.6298   81.5404  202.2855 H         0        0    0.0000
     16 H         101.0627   81.9804  202.9388 H         0        0    0.0000
     17 H         102.6575   83.1226  200.6749 H         0        0    0.0000
     18 H         101.4089   85.2169  201.0920 H         0        0    0.0000
     19 H         100.4315   84.3955  202.3024 H         0        0    0.0000
     20 C         105.5656   85.9984  201.2692 C.3       1        0    0.0000
     21 C         104.2078   85.3170  201.0824 C.3       1        0    0.0000
     22 C         103.9162   84.5521  202.3859 C.3       1        0    0.0000
     23 C         102.4892   84.7363  202.9169 C.3       1        0    0.0000
     24 C         104.9750   85.0582  203.3708 C.3       1        0    0.0000
     25 C         106.2034   85.3477  202.5015 C.3       1        0    0.0000
     26 C         107.0010   84.0726  202.1683 C.3       1        0    0.0000
     27 H         106.1814   85.9337  200.3671 H         1        0    0.0000
     28 H         105.4009   87.0648  201.4702 H         1        0    0.0000
     29 H         103.4424   86.0647  200.8473 H         1        0    0.0000
     30 H         104.2454   84.6161  200.2403 H         1        0    0.0000
     31 H         104.0998   83.4830  202.2070 H         1        0    0.0000
     32 H         102.3316   84.0699  203.7733 H         1        0    0.0000
     33 H         102.3451   85.7603  203.2804 H         1        0    0.0000
     34 H         105.1774   84.3318  204.1645 H         1        0    0.0000
     35 H         104.6385   85.9870  203.8495 H         1        0    0.0000
     36 H         106.8573   86.0637  203.0154 H         1        0    0.0000
     37 H         106.6703   83.6355  201.2196 H         1        0    0.0000
     38 H         106.8238   83.3191  202.9450 H         1        0    0.0000
     39 C         108.5310   84.3491  202.1022 C.3       2        0    0.0000
     40 C         109.0215   84.8166  200.7243 C.3       2        0    0.0000
     41 H         108.7404   85.1465  202.8266 H         2        0    0.0000
     42 H         109.0815   83.4641  202.4423 H         2        0    0.0000
     43 H         110.0095   84.4027  200.4912 H         2        0    0.0000
     44 H         108.3307   84.4256  199.9664 H         2        0    0.0000
     45 C         110.1137   87.2822  197.1154 C.3       3        0    0.0000
     46 C         109.9572   86.1627  198.1474 C.3       3        0    0.0000
     47 C         110.1042   86.8173  199.5327 C.3       3        0    0.0000
     48 C         109.0473   86.3749  200.5523 C.3       3        0    0.0000
     49 C         110.0497   88.3224  199.2516 C.3       3        0    0.0000
     50 C         110.6970   88.4808  197.8717 C.3       3        0    0.0000
     51 C         112.2359   88.4634  197.9392 C.3       3        0    0.0000
     52 H         110.7159   86.9651  196.2586 H         3        0    0.0000
     53 H         109.1212   87.5485  196.7300 H         3        0    0.0000
     54 H         108.9920   85.6618  198.0136 H         3        0    0.0000
     55 H         110.7372   85.4048  198.0094 H         3        0    0.0000
     56 H         111.1042   86.5789  199.9225 H         3        0    0.0000
     57 H         109.2692   86.8288  201.5255 H         3        0    0.0000
     58 H         108.0548   86.7318  200.2542 H         3        0    0.0000
     59 H         110.5572   88.9033  200.0286 H         3        0    0.0000
     60 H         109.0078   88.6654  199.2085 H         3        0    0.0000
     61 H         110.3622   89.4202  197.4138 H         3        0    0.0000
     62 H         112.6270   87.4502  197.7945 H         3        0    0.0000
     63 H         112.5603   88.7910  198.9341 H         3        0    0.0000
     64 C         112.8711   89.4157  196.8849 C.3       4        0    0.0000
     65 C         113.3732   88.7019  195.6217 C.3       4        0    0.0000
     66 H         112.0886   90.1253  196.5868 H         4        0    0.0000
     67 H         113.6677   90.0061  197.3527 H         4        0    0.0000
     68 H         114.4216   88.3983  195.7251 H         4        0    0.0000
     69 H         112.7905   87.7802  195.4971 H         4        0    0.0000
     70 C         115.2858   91.8194  193.2239 C.3       5        0    0.0000
     71 C         114.8523   91.4242  194.6381 C.3       5        0    0.0000
     72 C         113.3701   91.0439  194.5506 C.3       5        0    0.0000
     73 C         113.1915   89.5338  194.3050 C.3       5        0    0.0000
     74 C         112.8767   91.9366  193.4048 C.3       5        0    0.0000
     75 C         114.0068   91.8899  192.3732 C.3       5        0    0.0000
     76 C         113.9563   93.0726  191.3993 C.3       5        0    0.0000
     77 H         115.8213   92.7751  193.2546 H         5        0    0.0000
     78 H         115.9750   91.0746  192.8098 H         5        0    0.0000
     79 H         114.9646   92.2936  195.2982 H         5        0    0.0000
     80 H         115.4790   90.6266  195.0500 H         5        0    0.0000
     81 H         112.8608   91.3155  195.4841 H         5        0    0.0000
     82 H         113.9404   89.1958  193.5786 H         5        0    0.0000
     83 H         112.2114   89.3157  193.8674 H         5        0    0.0000
     84 H         112.7417   92.9613  193.7749 H         5        0    0.0000
     85 H         111.9221   91.6141  192.9784 H         5        0    0.0000
     86 H         113.9179   90.9542  191.8037 H         5        0    0.0000
     87 H         113.2116   92.8900  190.6159 H         5        0    0.0000
     88 H         114.9265   93.1734  190.8985 H         5        0    0.0000
     89 C         116.8248   96.2606  191.3649 C.3       6        0    0.0000
     90 C         116.0200   94.9609  191.4479 C.3       6        0    0.0000
     91 C         114.8866   95.2195  192.4494 C.3       6        0    0.0000
     92 C         113.6288   94.4080  192.1272 C.3       6        0    0.0000
     93 C         114.7011   96.7390  192.3807 C.3       6        0    0.0000
     94 C         116.1444   97.2503  192.3197 C.3       6        0    0.0000
     95 C         116.2879   98.7015  191.8530 C.3       6        0    0.0000
     96 H         117.8718   96.1015  191.6448 H         6        0    0.0000
     97 H         116.8171   96.6294  190.3322 H         6        0    0.0000
     98 H         116.6461   94.1224  191.7712 H         6        0    0.0000
     99 H         115.6284   94.7100  190.4548 H         6        0    0.0000
    100 H         115.2497   94.9555  193.4533 H         6        0    0.0000
    101 H         112.9690   95.0028  191.4842 H         6        0    0.0000
    102 H         113.0680   94.1953  193.0449 H         6        0    0.0000
    103 H         114.1669   97.1257  193.2543 H         6        0    0.0000
    104 H         114.1441   97.0265  191.4802 H         6        0    0.0000
    105 H         116.5996   97.1350  193.3141 H         6        0    0.0000
    106 H         115.9500   99.3885  192.6377 H         6        0    0.0000
    107 H         115.6385   98.8687  190.9854 H         6        0    0.0000
    108 C         117.7473   99.0518  191.4524 C.3       7        0    0.0000
    109 C         118.3084   98.1830  190.3177 C.3       7        0    0.0000
    110 H         117.7404  100.0949  191.1111 H         7        0    0.0000
    111 H         118.3922   99.0163  192.3383 H         7        0    0.0000
    112 H         117.7599   97.2377  190.2305 H         7        0    0.0000
    113 H         118.1600   98.7202  189.3722 H         7        0    0.0000
    114 C         119.8448   97.8932  190.4372 C.3       8        0    0.0000
    115 C         120.2587   96.5036  189.9323 C.3       8        0    0.0000
    116 H         120.0973   97.9572  191.5034 H         8        0    0.0000
    117 H         120.4105   98.6856  189.9331 H         8        0    0.0000
    118 H         120.9419   96.0630  190.6696 H         8        0    0.0000
    119 H         119.3958   95.8309  189.8633 H         8        0    0.0000
    120 C         121.0229   96.5247  188.5632 C.3       9        0    0.0000
    121 C         122.4206   95.8916  188.6191 C.3       9        0    0.0000
    122 H         120.4163   95.9486  187.8528 H         9        0    0.0000
    123 H         121.0649   97.5508  188.1794 H         9        0    0.0000
    124 H         122.6331   95.4811  189.6132 H         9        0    0.0000
    125 H         122.4394   95.0458  187.9199 H         9        0    0.0000
    126 C         123.5764   96.8601  188.1892 C.3      10        0    0.0000
    127 C         124.2909   96.4432  186.8957 C.3      10        0    0.0000
    128 H         124.3135   96.8543  189.0024 H        10        0    0.0000
    129 H         123.1933   97.8850  188.1208 H        10        0    0.0000
    130 H         125.3020   96.1067  187.1585 H        10        0    0.0000
    131 H         123.7907   95.5912  186.4205 H        10        0    0.0000
    132 C         124.4636  100.8971  187.7562 C.3      11        0    0.0000
    133 C         124.0788   99.4276  187.6581 C.3      11        0    0.0000
    134 C         124.9074   98.9362  186.4666 C.3      11        0    0.0000
    135 C         124.4566   97.6056  185.8564 C.3      11        0    0.0000
    136 C         124.9638  100.1289  185.4921 C.3      11        0    0.0000
    137 C         124.4654  101.3484  186.2920 C.3      11        0    0.0000
    138 C         125.1951  102.6655  186.0109 C.3      11        0    0.0000
    139 H         123.7514  101.4667  188.3612 H        11        0    0.0000
    140 H         125.4529  100.9906  188.2175 H        11        0    0.0000
    141 H         124.3147   98.8810  188.5764 H        11        0    0.0000
    142 H         123.0021   99.3384  187.4761 H        11        0    0.0000
    143 H         125.9329   98.7798  186.8342 H        11        0    0.0000
    144 H         123.5013   97.7543  185.3391 H        11        0    0.0000
    145 H         125.1823   97.2963  185.0949 H        11        0    0.0000
    146 H         124.3316   99.9873  184.6089 H        11        0    0.0000
    147 H         125.9876  100.2516  185.1226 H        11        0    0.0000
    148 H         123.4146  101.5061  186.0056 H        11        0    0.0000
    149 H         124.6619  103.2089  185.2218 H        11        0    0.0000
    150 H         125.1569  103.2950  186.9078 H        11        0    0.0000
    151 C         129.2196  104.9096  186.9836 C.3      12        0    0.0000
    152 C         127.9054  104.1332  187.1012 C.3      12        0    0.0000
    153 C         127.4686  103.8062  185.6672 C.3      12        0    0.0000
    154 C         126.6836  102.4943  185.5827 C.3      12        0    0.0000
    155 C         128.7899  103.8108  184.8911 C.3      12        0    0.0000
    156 C         129.5221  105.0194  185.4834 C.3      12        0    0.0000
    157 C         131.0252  105.0594  185.1942 C.3      12        0    0.0000
    158 H         129.1410  105.9013  187.4420 H        12        0    0.0000
    159 H         130.0121  104.3684  187.5142 H        12        0    0.0000
    160 H         127.1397  104.7190  187.6210 H        12        0    0.0000
    161 H         128.0712  103.2217  187.6879 H        12        0    0.0000
    162 H         126.8444  104.6347  185.3018 H        12        0    0.0000
    163 H         127.1514  101.7497  186.2379 H        12        0    0.0000
    164 H         126.7262  102.0905  184.5644 H        12        0    0.0000
    165 H         128.6307  103.9168  183.8133 H        12        0    0.0000
    166 H         129.3524  102.8854  185.0676 H        12        0    0.0000
    167 H         129.0483  105.9368  185.1046 H        12        0    0.0000
    168 H         131.4264  104.0415  185.1253 H        12        0    0.0000
    169 H         131.5418  105.5469  186.0297 H        12        0    0.0000
    170 C         131.3555  105.8347  183.8893 C.3      13        0    0.0000
    171 C         131.9671  104.9627  182.7833 C.3      13        0    0.0000
    172 H         130.4082  106.2439  183.5155 H        13        0    0.0000
    173 H         131.9974  106.6926  184.1216 H        13        0    0.0000
    174 H         133.0451  104.8286  182.9314 H        13        0    0.0000
    175 H         131.5150  103.9647  182.8476 H        13        0    0.0000
    176 C         129.4347  108.3827  181.3386 C.3      14        0    0.0000
    177 C         130.2963  107.4478  182.1860 C.3      14        0    0.0000
    178 C         131.4741  107.0085  181.2990 C.3      14        0    0.0000
    179 C         131.6947  105.4904  181.3321 C.3      14        0    0.0000
    180 C         131.1418  107.5626  179.9050 C.3      14        0    0.0000
    181 C         130.3178  108.8289  180.1704 C.3      14        0    0.0000
    182 C         131.1606  110.0655  180.5322 C.3      14        0    0.0000
    183 H         128.5775  107.8192  180.9487 H        14        0    0.0000
    184 H         129.0342  109.2165  181.9237 H        14        0    0.0000
    185 H         129.6996  106.6046  182.5510 H        14        0    0.0000
    186 H         130.6772  107.9779  183.0669 H        14        0    0.0000
    187 H         132.3797  107.5099  181.6687 H        14        0    0.0000
    188 H         132.5275  105.2122  180.6759 H        14        0    0.0000
    189 H         130.8023  104.9863  180.9420 H        14        0    0.0000
    190 H         132.0426  107.7523  179.3133 H        14        0    0.0000
    191 H         130.5269  106.8448  179.3465 H        14        0    0.0000
    192 H         129.6903  109.0611  179.3005 H        14        0    0.0000
    193 H         131.4973  110.0262  181.5737 H        14        0    0.0000
    194 H         130.5405  110.9652  180.4374 H        14        0    0.0000
    195 C         132.3904  110.2286  179.5947 C.3      15        0    0.0000
    196 C         132.0489  110.8011  178.2116 C.3      15        0    0.0000
    197 H         133.0773  110.9257  180.0916 H        15        0    0.0000
    198 H         132.9204  109.2726  179.5110 H        15        0    0.0000
    199 H         131.2369  111.5352  178.2731 H        15        0    0.0000
    200 H         132.9301  111.3386  177.8385 H        15        0    0.0000
    201 C         133.7777  108.2088  174.5171 C.3      16        0    0.0000
    202 C         133.5619  109.4203  175.4229 C.3      16        0    0.0000
    203 C         132.9240  108.8931  176.7199 C.3      16        0    0.0000
    204 C         131.6962  109.7116  177.1405 C.3      16        0    0.0000
    205 C         132.6223  107.4139  176.4342 C.3      16        0    0.0000
    206 C         133.6949  106.9804  175.4269 C.3      16        0    0.0000
    207 C         135.0577  106.6472  176.0610 C.3      16        0    0.0000
    208 H         132.9655  108.1678  173.7800 H        16        0    0.0000
    209 H         134.7173  108.2740  173.9595 H        16        0    0.0000
    210 H         132.9432  110.1698  174.9173 H        16        0    0.0000
    211 H         134.5219  109.8973  175.6529 H        16        0    0.0000
    212 H         133.6810  108.9493  177.5148 H        16        0    0.0000
    213 H         130.9131  109.0508  177.5302 H        16        0    0.0000
    214 H         131.2772  110.2141  176.2603 H        16        0    0.0000
    215 H         132.6221  106.8112  177.3477 H        16        0    0.0000
    216 H         131.6323  107.3095  175.9715 H        16        0    0.0000
    217 H         133.3439  106.1158  174.8493 H        16        0    0.0000
    218 H         135.1057  105.5979  176.3714 H        16        0    0.0000
    219 H         135.1902  107.2486  176.9686 H        16        0    0.0000
    220 C         134.3911  106.9720  171.8134 C.3      17        0    0.0000
    221 C         134.4577  106.6510  173.3088 C.3      17        0    0.0000
    222 C         135.9472  106.5364  173.6588 C.3      17        0    0.0000
    223 C         136.2404  106.9593  175.1009 C.3      17        0    0.0000
    224 C         136.6236  107.4011  172.5898 C.3      17        0    0.0000
    225 C         135.8431  107.0380  171.3221 C.3      17        0    0.0000
    226 C         136.0205  108.0197  170.1605 C.3      17        0    0.0000
    227 H         133.8253  106.2108  171.2655 H        17        0    0.0000
    228 H         133.8744  107.9282  171.6680 H        17        0    0.0000
    229 H         133.9267  105.7219  173.5427 H        17        0    0.0000
    230 H         133.9727  107.4541  173.8765 H        17        0    0.0000
    231 H         136.2545  105.4909  173.5104 H        17        0    0.0000
    232 H         136.4371  108.0377  175.1290 H        17        0    0.0000
    233 H         137.1473  106.4630  175.4658 H        17        0    0.0000
    234 H         137.6897  107.1725  172.4932 H        17        0    0.0000
    235 H         136.5190  108.4680  172.8234 H        17        0    0.0000
    236 H         136.1429  106.0292  171.0025 H        17        0    0.0000
    237 H         135.7883  109.0404  170.4864 H        17        0    0.0000
    238 H         135.3074  107.7719  169.3651 H        17        0    0.0000
    239 C         138.7246  111.4487  169.2045 C.3      18        0    0.0000
    240 C         137.5097  110.5581  169.4758 C.3      18        0    0.0000
    241 C         137.7621  109.2321  168.7359 C.3      18        0    0.0000
    242 C         137.4555  107.9803  169.5672 C.3      18        0    0.0000
    243 C         139.2325  109.3052  168.3119 C.3      18        0    0.0000
    244 C         139.4837  110.7933  168.0456 C.3      18        0    0.0000
    245 C         138.9746  111.2365  166.6609 C.3      18        0    0.0000
    246 H         138.4344  112.4859  169.0118 H        18        0    0.0000
    247 H         139.3646  111.4543  170.0962 H        18        0    0.0000
    248 H         137.3763  110.4246  170.5550 H        18        0    0.0000
    249 H         136.5975  111.0301  169.0926 H        18        0    0.0000
    250 H         137.1447  109.2218  167.8263 H        18        0    0.0000
    251 H         137.5450  107.0913  168.9315 H        18        0    0.0000
    252 H         138.1879  107.8682  170.3750 H        18        0    0.0000
    253 H         139.4396  108.6763  167.4399 H        18        0    0.0000
    254 H         139.8828  108.9648  169.1281 H        18        0    0.0000
    255 H         140.5575  111.0051  168.1249 H        18        0    0.0000
    256 H         138.8393  112.3229  166.6181 H        18        0    0.0000
    257 H         137.9930  110.7856  166.4726 H        18        0    0.0000
    258 C         138.0928  108.7454  163.0366 C.3      19        0    0.0000
    259 C         138.0640  109.4051  164.4175 C.3      19        0    0.0000
    260 C         139.5198  109.4472  164.9156 C.3      19        0    0.0000
    261 C         139.9378  110.7924  165.5221 C.3      19        0    0.0000
    262 C         140.3551  109.0769  163.6859 C.3      19        0    0.0000
    263 C         139.4750  108.0970  162.9025 C.3      19        0    0.0000
    264 C         139.5318  106.6685  163.4762 C.3      19        0    0.0000
    265 H         137.2621  108.0462  162.9018 H        19        0    0.0000
    266 H         137.9850  109.5242  162.2708 H        19        0    0.0000
    267 H         137.6088  110.3992  164.3485 H        19        0    0.0000
    268 H         137.4510  108.8155  165.1092 H        19        0    0.0000
    269 H         139.6500  108.6559  165.6676 H        19        0    0.0000
    270 H         140.9494  110.7053  165.9362 H        19        0    0.0000
    271 H         139.9774  111.5662  164.7468 H        19        0    0.0000
    272 H         141.3247  108.6501  163.9621 H        19        0    0.0000
    273 H         140.5472  109.9668  163.0725 H        19        0    0.0000
    274 H         139.7882  108.0810  161.8508 H        19        0    0.0000
    275 H         139.1471  106.6382  164.5016 H        19        0    0.0000
    276 H         140.5753  106.3342  163.5175 H        19        0    0.0000
    277 C         138.7351  105.6611  162.5975 C.3      20        0    0.0000
    278 C         137.2129  105.8545  162.6511 C.3      20        0    0.0000
    279 H         139.0618  105.8170  161.5614 H        20        0    0.0000
    280 H         139.0165  104.6355  162.8639 H        20        0    0.0000
    281 H         136.7890  105.4308  163.5691 H        20        0    0.0000
    282 H         137.0074  106.9323  162.6790 H        20        0    0.0000
    283 C         138.8232  103.2230  159.5018 C.3      21        0    0.0000
    284 C         138.5156  103.8851  160.8441 C.3      21        0    0.0000
    285 C         136.9838  103.9036  160.9859 C.3      21        0    0.0000
    286 C         136.4535  105.2811  161.4048 C.3      21        0    0.0000
    287 C         136.4592  103.4179  159.6259 C.3      21        0    0.0000
    288 C         137.5491  102.4775  159.0961 C.3      21        0    0.0000
    289 C         137.5033  101.0592  159.6933 C.3      21        0    0.0000
    290 H         139.0358  104.0045  158.7611 H        21        0    0.0000
    291 H         139.7061  102.5782  159.5537 H        21        0    0.0000
    292 H         138.9601  104.8855  160.8872 H        21        0    0.0000
    293 H         138.9537  103.3026  161.6631 H        21        0    0.0000
    294 H         136.7074  103.1655  161.7521 H        21        0    0.0000
    295 H         135.3799  105.2267  161.6197 H        21        0    0.0000
    296 H         136.5743  105.9842  160.5719 H        21        0    0.0000
    297 H         135.4805  102.9359  159.7120 H        21        0    0.0000
    298 H         136.3490  104.2645  158.9357 H        21        0    0.0000
    299 H         137.4924  102.4111  158.0021 H        21        0    0.0000
    300 H         136.4751  100.6871  159.7554 H        21        0    0.0000
    301 H         137.8887  101.0872  160.7198 H        21        0    0.0000
    302 C         138.7366   98.6022  155.5311 C.3      22        0    0.0000
    303 C         138.0196   98.5143  156.8775 C.3      22        0    0.0000
    304 C         137.9200   99.9510  157.4187 C.3      22        0    0.0000
    305 C         138.3706  100.0556  158.8817 C.3      22        0    0.0000
    306 C         138.7561  100.7948  156.4443 C.3      22        0    0.0000
    307 C         138.6453  100.0677  155.0982 C.3      22        0    0.0000
    308 C         137.3418  100.3559  154.3311 C.3      22        0    0.0000
    309 H         139.7910   98.3323  155.6724 H        22        0    0.0000
    310 H         138.3203   97.9055  154.7968 H        22        0    0.0000
    311 H         138.5573   97.8402  157.5533 H        22        0    0.0000
    312 H         137.0129   98.1009  156.7443 H        22        0    0.0000
    313 H         136.8700  100.2672  157.3441 H        22        0    0.0000
    314 H         139.4247  100.3514  158.9354 H        22        0    0.0000
    315 H         138.2940   99.0695  159.3556 H        22        0    0.0000
    316 H         138.4126  101.8330  156.4015 H        22        0    0.0000
    317 H         139.8079  100.8094  156.7588 H        22        0    0.0000
    318 H         139.5028  100.3189  154.4609 H        22        0    0.0000
    319 H         136.5125   99.7530  154.7163 H        22        0    0.0000
    320 H         137.4722  100.0736  153.2793 H        22        0    0.0000
    321 C         139.8869  104.1243  154.6288 C.3      23        0    0.0000
    322 C         139.3943  102.6753  154.6002 C.3      23        0    0.0000
    323 C         137.9707  102.6828  155.1853 C.3      23        0    0.0000
    324 C         136.9560  101.8614  154.3803 C.3      23        0    0.0000
    325 C         137.5949  104.1663  155.2568 C.3      23        0    0.0000
    326 C         138.9178  104.8862  155.5394 C.3      23        0    0.0000
    327 C         139.3124  104.8275  157.0273 C.3      23        0    0.0000
    328 H         140.9331  104.1928  154.9416 H        23        0    0.0000
    329 H         139.8270  104.5378  153.6138 H        23        0    0.0000
    330 H         139.4318  102.2869  153.5765 H        23        0    0.0000
    331 H         140.0447  102.0392  155.2119 H        23        0    0.0000
    332 H         138.0177  102.2928  156.2121 H        23        0    0.0000
    333 H         135.9663  101.9520  154.8435 H        23        0    0.0000
    334 H         136.8671  102.2551  153.3612 H        23        0    0.0000
    335 H         136.8338  104.3603  156.0196 H        23        0    0.0000
    336 H         137.1925  104.5053  154.2933 H        23        0    0.0000
    337 H         138.8414  105.9342  155.2229 H        23        0    0.0000
    338 H         139.4197  103.7916  157.3677 H        23        0    0.0000
    339 H         138.5186  105.2811  157.6325 H        23        0    0.0000
    340 C         142.0018  108.7708  155.7171 C.3      24        0    0.0000
    341 C         142.1988  107.5338  156.5823 C.3      24        0    0.0000
    342 C         140.9373  106.7125  156.2966 C.3      24        0    0.0000
    343 C         140.6344  105.6002  157.3052 C.3      24        0    0.0000
    344 C         139.8152  107.7495  156.0941 C.3      24        0    0.0000
    345 C         140.5236  109.1091  155.9361 C.3      24        0    0.0000
    346 C         139.9069  110.0592  154.9050 C.3      24        0    0.0000
    347 H         142.6606  109.5905  156.0198 H        24        0    0.0000
    348 H         142.2186  108.5288  154.6708 H        24        0    0.0000
    349 H         143.1116  106.9910  156.3178 H        24        0    0.0000
    350 H         142.2702  107.8266  157.6356 H        24        0    0.0000
    351 H         141.0910  106.2196  155.3247 H        24        0    0.0000
    352 H         141.4658  104.8854  157.3103 H        24        0    0.0000
    353 H         140.5847  106.0327  158.3115 H        24        0    0.0000
    354 H         139.1200  107.7950  156.9393 H        24        0    0.0000
    355 H         139.2180  107.4762  155.2175 H        24        0    0.0000
    356 H         140.4536  109.6169  156.9099 H        24        0    0.0000
    357 H         140.3720  111.0471  155.0052 H        24        0    0.0000
    358 H         140.1463  109.6990  153.8975 H        24        0    0.0000
    359 C         137.5174  109.9362  158.6918 C.3      25        0    0.0000
    360 C         138.4634  110.3112  157.5613 C.3      25        0    0.0000
    361 C         137.8137  109.6578  156.3398 C.3      25        0    0.0000
    362 C         138.3615  110.2191  155.0253 C.3      25        0    0.0000
    363 C         136.3072  109.8874  156.5598 C.3      25        0    0.0000
    364 C         136.1266  110.1257  158.0732 C.3      25        0    0.0000
    365 C         134.9999  109.3231  158.7360 C.3      25        0    0.0000
    366 H         137.6626  110.5691  159.5729 H        25        0    0.0000
    367 H         137.6984  108.8983  158.9915 H        25        0    0.0000
    368 H         138.5087  111.4015  157.4499 H        25        0    0.0000
    369 H         139.4785  109.9423  157.7372 H        25        0    0.0000
    370 H         138.0060  108.5760  156.3850 H        25        0    0.0000
    371 H         137.8799  109.7249  154.1732 H        25        0    0.0000
    372 H         138.1112  111.2842  154.9539 H        25        0    0.0000
    373 H         135.9570  110.7729  156.0149 H        25        0    0.0000
    374 H         135.7280  109.0362  156.1869 H        25        0    0.0000
    375 H         135.8631  111.1870  158.1942 H        25        0    0.0000
    376 H         134.5649  109.9190  159.5471 H        25        0    0.0000
    377 H         135.4274  108.4261  159.1997 H        25        0    0.0000
    378 C         131.8900  110.2508  154.9338 C.3      26        0    0.0000
    379 C         133.1652  109.5218  155.3643 C.3      26        0    0.0000
    380 C         133.4917  110.0095  156.7873 C.3      26        0    0.0000
    381 C         133.8639  108.8887  157.7658 C.3      26        0    0.0000
    382 C         132.2390  110.7747  157.2257 C.3      26        0    0.0000
    383 C         131.6941  111.3948  155.9346 C.3      26        0    0.0000
    384 C         132.4440  112.6808  155.5385 C.3      26        0    0.0000
    385 H         131.9411  110.5798  153.8915 H        26        0    0.0000
    386 H         131.0433  109.5567  155.0107 H        26        0    0.0000
    387 H         133.0139  108.4381  155.3100 H        26        0    0.0000
    388 H         133.9921  109.7677  154.6879 H        26        0    0.0000
    389 H         134.3241  110.7250  156.7242 H        26        0    0.0000
    390 H         132.9830  108.6183  158.3603 H        26        0    0.0000
    391 H         134.1669  107.9882  157.2193 H        26        0    0.0000
    392 H         132.4626  111.5213  157.9947 H        26        0    0.0000
    393 H         131.4949  110.0830  157.6417 H        26        0    0.0000
    394 H         130.6263  111.6172  156.0553 H        26        0    0.0000
    395 H         133.2732  112.4614  154.8569 H        26        0    0.0000
    396 H         132.8805  113.1381  156.4344 H        26        0    0.0000
    397 C         131.4953  113.7220  154.8768 C.3      27        0    0.0000
    398 C         130.8588  114.7053  155.8693 C.3      27        0    0.0000
    399 H         132.1033  114.2991  154.1682 H        27        0    0.0000
    400 H         130.7325  113.2028  154.2848 H        27        0    0.0000
    401 H         131.4269  114.7505  156.8059 H        27        0    0.0000
    402 H         130.9008  115.7094  155.4281 H        27        0    0.0000
    403 C         127.3386  112.8831  153.3563 C.3      28        0    0.0000
    404 C         128.6582  113.0307  154.0982 C.3      28        0    0.0000
    405 C         128.4578  114.2989  154.9375 C.3      28        0    0.0000
    406 C         129.3504  114.4102  156.1799 C.3      28        0    0.0000
    407 C         126.9407  114.3885  155.2022 C.3      28        0    0.0000
    408 C         126.3021  113.2192  154.4305 C.3      28        0    0.0000
    409 C         124.9270  113.5231  153.8307 C.3      28        0    0.0000
    410 H         127.2899  113.5945  152.5229 H        28        0    0.0000
    411 H         127.2054  111.8742  152.9540 H        28        0    0.0000
    412 H         128.8290  112.1459  154.7209 H        28        0    0.0000
    413 H         129.5049  113.1247  153.4110 H        28        0    0.0000
    414 H         128.7148  115.1537  154.2941 H        28        0    0.0000
    415 H         128.9630  115.2068  156.8262 H        28        0    0.0000
    416 H         129.2824  113.4788  156.7545 H        28        0    0.0000
    417 H         126.5710  115.3544  154.8362 H        28        0    0.0000
    418 H         126.6864  114.3343  156.2660 H        28        0    0.0000
    419 H         126.2227  112.3604  155.1130 H        28        0    0.0000
    420 H         124.4165  112.5903  153.5633 H        28        0    0.0000
    421 H         124.3039  114.0176  154.5853 H        28        0    0.0000
    422 C         125.2946  112.0324  149.6477 C.3      29        0    0.0000
    423 C         125.3306  112.3026  151.1454 C.3      29        0    0.0000
    424 C         124.7483  113.7159  151.2518 C.3      29        0    0.0000
    425 C         125.0124  114.4378  152.5767 C.3      29        0    0.0000
    426 C         125.2329  114.4507  149.9866 C.3      29        0    0.0000
    427 C         125.7813  113.3565  149.0498 C.3      29        0    0.0000
    428 C         125.4850  113.5535  147.5600 C.3      29        0    0.0000
    429 H         125.9392  111.1934  149.3681 H        29        0    0.0000
    430 H         124.2710  111.7925  149.3395 H        29        0    0.0000
    431 H         124.7409  111.5715  151.7070 H        29        0    0.0000
    432 H         126.3643  112.2546  151.5053 H        29        0    0.0000
    433 H         123.6558  113.6183  151.1615 H        29        0    0.0000
    434 H         126.0077  114.8964  152.5423 H        29        0    0.0000
    435 H         124.2919  115.2567  152.6884 H        29        0    0.0000
    436 H         126.0206  115.1827  150.1949 H        29        0    0.0000
    437 H         124.4002  115.0098  149.5465 H        29        0    0.0000
    438 H         126.8766  113.3705  149.1550 H        29        0    0.0000
    439 H         124.5224  113.0857  147.3215 H        29        0    0.0000
    440 H         125.3739  114.6249  147.3552 H        29        0    0.0000
    441 C         127.8855  115.6525  144.2995 C.3      30        0    0.0000
    442 C         127.4143  115.1752  145.6647 C.3      30        0    0.0000
    443 C         126.7695  113.8234  145.3513 C.3      30        0    0.0000
    444 C         126.5734  112.9723  146.6083 C.3      30        0    0.0000
    445 C         127.7061  113.2071  144.2959 C.3      30        0    0.0000
    446 C         128.4691  114.3867  143.6589 C.3      30        0    0.0000
    447 C         128.5148  114.3898  142.1257 C.3      30        0    0.0000
    448 H         128.6304  116.4504  144.3804 H        30        0    0.0000
    449 H         127.0332  116.0460  143.7350 H        30        0    0.0000
    450 H         128.2691  115.0585  146.3420 H        30        0    0.0000
    451 H         126.7077  115.8746  146.1218 H        30        0    0.0000
    452 H         125.7942  114.0086  144.8781 H        30        0    0.0000
    453 H         126.3013  111.9467  146.3320 H        30        0    0.0000
    454 H         127.5219  112.9096  147.1550 H        30        0    0.0000
    455 H         128.4285  112.5227  144.7579 H        30        0    0.0000
    456 H         127.1354  112.6212  143.5678 H        30        0    0.0000
    457 H         129.5121  114.3061  143.9995 H        30        0    0.0000
    458 H         129.0925  113.5233  141.7827 H        30        0    0.0000
    459 H         129.0559  115.2817  141.7877 H        30        0    0.0000
    460 C         127.5894  113.5719  137.7670 C.3      31        0    0.0000
    461 C         128.1524  113.6413  139.1783 C.3      31        0    0.0000
    462 C         127.1558  114.5428  139.9179 C.3      31        0    0.0000
    463 C         127.1179  114.3660  141.4411 C.3      31        0    0.0000
    464 C         125.8060  114.3528  139.1957 C.3      31        0    0.0000
    465 C         126.0859  113.4176  138.0050 C.3      31        0    0.0000
    466 C         125.2683  113.7207  136.7470 C.3      31        0    0.0000
    467 H         127.8112  114.4985  137.2237 H        31        0    0.0000
    468 H         128.0068  112.7340  137.2002 H        31        0    0.0000
    469 H         128.1941  112.6337  139.6058 H        31        0    0.0000
    470 H         129.1662  114.0536  139.1939 H        31        0    0.0000
    471 H         127.4659  115.5824  139.7346 H        31        0    0.0000
    472 H         126.5004  115.1609  141.8763 H        31        0    0.0000
    473 H         126.6224  113.4174  141.6795 H        31        0    0.0000
    474 H         125.4426  115.3305  138.8555 H        31        0    0.0000
    475 H         125.0282  113.9331  139.8423 H        31        0    0.0000
    476 H         125.8926  112.3841  138.3277 H        31        0    0.0000
    477 H         124.2018  113.7808  136.9943 H        31        0    0.0000
    478 H         125.5564  114.7037  136.3558 H        31        0    0.0000
    479 C         125.4760  112.6590  135.6306 C.3      32        0    0.0000
    480 C         125.0492  113.1313  134.2334 C.3      32        0    0.0000
    481 H         126.5503  112.4362  135.6013 H        32        0    0.0000
    482 H         124.9701  111.7270  135.9084 H        32        0    0.0000
    483 H         124.1060  113.6888  134.2716 H        32        0    0.0000
    484 H         125.8111  113.8287  133.8622 H        32        0    0.0000
    485 C         125.5553  114.7246  130.8220 C.3      33        0    0.0000
    486 C         126.1851  113.6382  131.6923 C.3      33        0    0.0000
    487 C         125.1775  112.4769  131.7461 C.3      33        0    0.0000
    488 C         124.9386  111.9777  133.1772 C.3      33        0    0.0000
    489 C         123.9177  113.0198  131.0540 C.3      33        0    0.0000
    490 C         124.4376  114.0387  130.0320 C.3      33        0    0.0000
    491 C         124.9629  113.4119  128.7276 C.3      33        0    0.0000
    492 H         125.1184  115.4923  131.4735 H        33        0    0.0000
    493 H         126.2941  115.2226  130.1863 H        33        0    0.0000
    494 H         126.4299  114.0366  132.6830 H        33        0    0.0000
    495 H         127.1234  113.2904  131.2443 H        33        0    0.0000
    496 H         125.5812  111.6521  131.1420 H        33        0    0.0000
    497 H         125.6485  111.1803  133.4259 H        33        0    0.0000
    498 H         123.9351  111.5406  133.2454 H        33        0    0.0000
    499 H         123.3224  112.2215  130.6001 H        33        0    0.0000
    500 H         123.2763  113.5355  131.7805 H        33        0    0.0000
    501 H         123.6533  114.7680  129.7924 H        33        0    0.0000
    502 H         124.5102  112.4309  128.5477 H        33        0    0.0000
    503 H         126.0435  113.2467  128.8162 H        33        0    0.0000
    504 C         125.3962  118.0116  127.0229 C.3      34        0    0.0000
    505 C         125.6667  116.5489  126.7055 C.3      34        0    0.0000
    506 C         124.9222  115.8127  127.8212 C.3      34        0    0.0000
    507 C         124.7165  114.3308  127.4976 C.3      34        0    0.0000
    508 C         123.6228  116.6214  127.9896 C.3      34        0    0.0000
    509 C         123.9142  118.0245  127.4187 C.3      34        0    0.0000
    510 C         123.4834  119.1988  128.3066 C.3      34        0    0.0000
    511 H         125.5955  118.6598  126.1638 H        34        0    0.0000
    512 H         126.0458  118.3343  127.8437 H        34        0    0.0000
    513 H         125.2580  116.2922  125.7205 H        34        0    0.0000
    514 H         126.7371  116.3216  126.7022 H        34        0    0.0000
    515 H         125.5079  115.9080  128.7471 H        34        0    0.0000
    516 H         123.7010  114.1636  127.1195 H        34        0    0.0000
    517 H         125.4035  114.0365  126.6952 H        34        0    0.0000
    518 H         122.7984  116.1700  127.4236 H        34        0    0.0000
    519 H         123.3129  116.6407  129.0397 H        34        0    0.0000
    520 H         123.3340  118.1110  126.4879 H        34        0    0.0000
    521 H         122.6922  119.7616  127.7971 H        34        0    0.0000
    522 H         124.3306  119.8849  128.4248 H        34        0    0.0000
    523 C         119.4761  117.3872  129.8440 C.3      35        0    0.0000
    524 C         120.6855  118.0277  130.5302 C.3      35        0    0.0000
    525 C         121.9020  117.6966  129.6557 C.3      35        0    0.0000
    526 C         122.9772  118.7850  129.7183 C.3      35        0    0.0000
    527 C         121.2867  117.4860  128.2683 C.3      35        0    0.0000
    528 C         120.0122  116.6958  128.5836 C.3      35        0    0.0000
    529 C         118.9817  116.6690  127.4514 C.3      35        0    0.0000
    530 H         118.9757  116.6695  130.5029 H        35        0    0.0000
    531 H         118.7438  118.1645  129.5946 H        35        0    0.0000
    532 H         120.8174  117.6448  131.5479 H        35        0    0.0000
    533 H         120.5300  119.1104  130.6081 H        35        0    0.0000
    534 H         122.3227  116.7412  130.0016 H        35        0    0.0000
    535 H         123.8306  118.4178  130.3009 H        35        0    0.0000
    536 H         122.5939  119.6686  130.2420 H        35        0    0.0000
    537 H         121.9571  116.9324  127.6033 H        35        0    0.0000
    538 H         121.0466  118.4463  127.7951 H        35        0    0.0000
    539 H         120.2945  115.6670  128.8509 H        35        0    0.0000
    540 H         118.1274  116.0407  127.7295 H        35        0    0.0000
    541 H         119.4329  116.2133  126.5619 H        35        0    0.0000
    542 C         116.6268  119.8429  129.8954 C.3      36        0    0.0000
    543 C         116.9201  118.5879  129.0853 C.3      36        0    0.0000
    544 C         118.1625  118.9834  128.2804 C.3      36        0    0.0000
    545 C         118.4781  118.0900  127.0769 C.3      36        0    0.0000
    546 C         117.9827  120.4817  127.9667 C.3      36        0    0.0000
    547 C         116.8344  120.9656  128.8736 C.3      36        0    0.0000
    548 C         117.0056  122.3686  129.4639 C.3      36        0    0.0000
    549 H         115.6105  119.8392  130.3014 H        36        0    0.0000
    550 H         117.3280  119.9142  130.7341 H        36        0    0.0000
    551 H         117.1048  117.7209  129.7271 H        36        0    0.0000
    552 H         116.0664  118.3570  128.4386 H        36        0    0.0000
    553 H         119.0227  118.9044  128.9622 H        36        0    0.0000
    554 H         117.5786  117.9930  126.4574 H        36        0    0.0000
    555 H         119.2370  118.5802  126.4558 H        36        0    0.0000
    556 H         117.7254  120.6693  126.9186 H        36        0    0.0000
    557 H         118.9239  121.0101  128.1529 H        36        0    0.0000
    558 H         115.9298  120.9983  128.2476 H        36        0    0.0000
    559 H         116.0319  122.8726  129.4774 H        36        0    0.0000
    560 H         117.3294  122.2811  130.5078 H        36        0    0.0000
    561 C         118.6080  120.3789  126.4404 C.3      37        0    0.0000
    562 C         119.2246  121.3602  127.4404 C.3      37        0    0.0000
    563 C         118.4073  122.6607  127.3418 C.3      37        0    0.0000
    564 C         118.0232  123.2660  128.6976 C.3      37        0    0.0000
    565 C         117.1819  122.2792  126.5051 C.3      37        0    0.0000
    566 C         117.6956  121.2115  125.5332 C.3      37        0    0.0000
    567 C         118.4345  121.8216  124.3271 C.3      37        0    0.0000
    568 H         119.3732  119.8146  125.8989 H        37        0    0.0000
    569 H         117.9997  119.6496  126.9906 H        37        0    0.0000
    570 H         119.2143  120.9262  128.4463 H        37        0    0.0000
    571 H         120.2718  121.5585  127.1839 H        37        0    0.0000
    572 H         118.9946  123.3948  126.7719 H        37        0    0.0000
    573 H         118.9233  123.3760  129.3142 H        37        0    0.0000
    574 H         117.6050  124.2703  128.5639 H        37        0    0.0000
    575 H         116.7480  123.1453  125.9947 H        37        0    0.0000
    576 H         116.4020  121.8466  127.1450 H        37        0    0.0000
    577 H         116.8546  120.6033  125.1768 H        37        0    0.0000
    578 H         118.7697  121.0429  123.6331 H        37        0    0.0000
    579 H         119.3325  122.3445  124.6770 H        37        0    0.0000
    580 C         114.7049  124.0474  125.7616 C.3      38        0    0.0000
    581 C         116.0687  123.3886  125.6212 C.3      38        0    0.0000
    582 C         116.1326  123.0096  124.1362 C.3      38        0    0.0000
    583 C         117.5456  122.8447  123.5623 C.3      38        0    0.0000
    584 C         115.2367  124.0313  123.4060 C.3      38        0    0.0000
    585 C         114.6108  124.9121  124.5028 C.3      38        0    0.0000
    586 C         113.1763  125.3647  124.2194 C.3      38        0    0.0000
    587 H         113.9155  123.2861  125.7788 H        38        0    0.0000
    588 H         114.6290  124.6407  126.6779 H        38        0    0.0000
    589 H         116.8508  124.1034  125.8992 H        38        0    0.0000
    590 H         116.1686  122.5136  126.2711 H        38        0    0.0000
    591 H         115.6405  122.0310  124.0331 H        38        0    0.0000
    592 H         117.4696  122.5294  122.5149 H        38        0    0.0000
    593 H         118.0477  123.8194  123.5611 H        38        0    0.0000
    594 H         114.4656  123.4912  122.8427 H        38        0    0.0000
    595 H         115.7854  124.6449  122.6838 H        38        0    0.0000
    596 H         115.2528  125.7942  124.6423 H        38        0    0.0000
    597 H         112.4854  124.5199  124.3250 H        38        0    0.0000
    598 H         112.8777  126.1106  124.9657 H        38        0    0.0000
    599 C         109.3038  126.7711  122.5798 C.3      39        0    0.0000
    600 C         110.4774  126.1234  123.3013 C.3      39        0    0.0000
    601 C         111.6919  126.7243  122.5861 C.3      39        0    0.0000
    602 C         113.0152  125.9840  122.8027 C.3      39        0    0.0000
    603 C         111.2564  126.8907  121.1171 C.3      39        0    0.0000
    604 C         109.7268  126.7020  121.1088 C.3      39        0    0.0000
    605 C         108.9532  127.6209  120.1584 C.3      39        0    0.0000
    606 H         108.3661  126.2375  122.7636 H        39        0    0.0000
    607 H         109.1812  127.8035  122.9253 H        39        0    0.0000
    608 H         110.4758  126.3520  124.3716 H        39        0    0.0000
    609 H         110.4279  125.0351  123.1858 H        39        0    0.0000
    610 H         111.8312  127.7381  122.9911 H        39        0    0.0000
    611 H         113.1049  125.1852  122.0569 H        39        0    0.0000
    612 H         113.8466  126.6762  122.6244 H        39        0    0.0000
    613 H         111.7195  126.1558  120.4499 H        39        0    0.0000
    614 H         111.5657  127.8764  120.7530 H        39        0    0.0000
    615 H         109.5374  125.6720  120.7705 H        39        0    0.0000
    616 H         109.0426  127.2354  119.1358 H        39        0    0.0000
    617 H         107.8878  127.5875  120.4156 H        39        0    0.0000
    618 C         106.6414  131.2355  121.3934 C.3      40        0    0.0000
    619 C         107.0608  129.8543  120.8843 C.3      40        0    0.0000
    620 C         108.2616  130.0766  119.9472 C.3      40        0    0.0000
    621 C         109.4262  129.1055  120.1768 C.3      40        0    0.0000
    622 C         108.6640  131.5362  120.1818 C.3      40        0    0.0000
    623 C         107.3464  132.2546  120.4917 C.3      40        0    0.0000
    624 C         106.5472  132.5913  119.2184 C.3      40        0    0.0000
    625 H         105.5533  131.3470  121.4192 H        40        0    0.0000
    626 H         107.0015  131.3567  122.4231 H        40        0    0.0000
    627 H         107.2965  129.1988  121.7299 H        40        0    0.0000
    628 H         106.2386  129.3859  120.3307 H        40        0    0.0000
    629 H         107.9114  129.9818  118.9094 H        40        0    0.0000
    630 H         110.1741  129.2422  119.3866 H        40        0    0.0000
    631 H         109.9253  129.3241  121.1278 H        40        0    0.0000
    632 H         109.1873  131.9610  119.3191 H        40        0    0.0000
    633 H         109.3349  131.6130  121.0473 H        40        0    0.0000
    634 H         107.5527  133.1777  121.0481 H        40        0    0.0000
    635 H         105.4952  132.7887  119.4522 H        40        0    0.0000
    636 H         106.5665  131.7312  118.5386 H        40        0    0.0000
    637 C         104.5253  135.9296  116.9074 C.3      41        0    0.0000
    638 C         104.8363  134.6342  117.6610 C.3      41        0    0.0000
    639 C         106.2734  134.2368  117.2788 C.3      41        0    0.0000
    640 C         107.1462  133.8156  118.4674 C.3      41        0    0.0000
    641 C         106.8295  135.4662  116.5532 C.3      41        0    0.0000
    642 C         105.6167  136.0754  115.8414 C.3      41        0    0.0000
    643 C         105.2801  135.3468  114.5266 C.3      41        0    0.0000
    644 H         103.5090  135.9310  116.5019 H        41        0    0.0000
    645 H         104.5928  136.7711  117.6087 H        41        0    0.0000
    646 H         104.7094  134.7876  118.7384 H        41        0    0.0000
    647 H         104.1394  133.8424  117.3624 H        41        0    0.0000
    648 H         106.2219  133.4089  116.5572 H        41        0    0.0000
    649 H         108.1463  133.5472  118.1065 H        41        0    0.0000
    650 H         107.2739  134.6521  119.1641 H        41        0    0.0000
    651 H         107.6395  135.2045  115.8647 H        41        0    0.0000
    652 H         107.2297  136.1882  117.2768 H        41        0    0.0000
    653 H         105.8069  137.1359  115.6329 H        41        0    0.0000
    654 H         105.2784  134.2600  114.6656 H        41        0    0.0000
    655 H         106.0500  135.5711  113.7788 H        41        0    0.0000
    656 C         103.7092  139.4543  113.7497 C.3      42        0    0.0000
    657 C         104.6203  138.2447  113.9528 C.3      42        0    0.0000
    658 C         104.0090  137.0907  113.1395 C.3      42        0    0.0000
    659 C         103.9040  135.7946  113.9541 C.3      42        0    0.0000
    660 C         102.6579  137.6319  112.6472 C.3      42        0    0.0000
    661 C         102.8661  139.1454  112.5098 C.3      42        0    0.0000
    662 C         103.5813  139.5686  111.2137 C.3      42        0    0.0000
    663 H         103.0484  139.5511  114.6208 H        42        0    0.0000
    664 H         104.2757  140.3873  113.6686 H        42        0    0.0000
    665 H         104.7141  138.0120  115.0192 H        42        0    0.0000
    666 H         105.6283  138.4630  113.5810 H        42        0    0.0000
    667 H         104.6545  136.9141  112.2675 H        42        0    0.0000
    668 H         103.4810  134.9916  113.3394 H        42        0    0.0000
    669 H         103.2138  135.9487  114.7922 H        42        0    0.0000
    670 H         102.3402  137.1555  111.7146 H        42        0    0.0000
    671 H         101.8768  137.4435  113.3952 H        42        0    0.0000
    672 H         101.9031  139.6674  112.5782 H        42        0    0.0000
    673 H         104.1696  138.7440  110.7970 H        42        0    0.0000
    674 H         104.2892  140.3755  111.4391 H        42        0    0.0000
    675 C         102.5845  140.0899  110.1402 C.3      43        0    0.0000
    676 C         102.9184  141.4903  109.6065 C.3      43        0    0.0000
    677 H         102.6278  139.3858  109.2993 H        43        0    0.0000
    678 H         101.5620  140.0461  110.5332 H        43        0    0.0000
    679 H         104.0013  141.6585  109.5778 H        43        0    0.0000
    680 H         102.5635  141.5531  108.5698 H        43        0    0.0000
    681 C         101.8080  140.7749  113.6710 C.3      44        0    0.0000
    682 C         102.6746  141.2147  112.4993 C.3      44        0    0.0000
    683 C         101.8177  142.2917  111.8258 C.3      44        0    0.0000
    684 C         102.2234  142.6545  110.3941 C.3      44        0    0.0000
    685 C         100.3608  141.8217  112.0048 C.3      44        0    0.0000
    686 C         100.4103  140.6894  113.0492 C.3      44        0    0.0000
    687 C          99.2478  140.6594  114.0462 C.3      44        0    0.0000
    688 H         102.1342  139.8150  114.0831 H        44        0    0.0000
    689 H         101.8586  141.5229  114.4699 H        44        0    0.0000
    690 H         103.6416  141.6059  112.8301 H        44        0    0.0000
    691 H         102.8611  140.3624  111.8366 H        44        0    0.0000
    692 H         101.9296  143.2085  112.4241 H        44        0    0.0000
    693 H         101.3327  142.9725  109.8393 H        44        0    0.0000
    694 H         102.9018  143.5155  110.4211 H        44        0    0.0000
    695 H          99.9181  141.4445  111.0766 H        44        0    0.0000
    696 H          99.7400  142.6666  112.3219 H        44        0    0.0000
    697 H         100.3672  139.7422  112.4905 H        44        0    0.0000
    698 H          98.8073  139.6554  114.0525 H        44        0    0.0000
    699 H          99.6367  140.8391  115.0556 H        44        0    0.0000
    700 C          96.2239  142.5402  116.8984 C.3      45        0    0.0000
    701 C          97.4253  141.9083  116.1905 C.3      45        0    0.0000
    702 C          96.9716  141.6102  114.7554 C.3      45        0    0.0000
    703 C          98.1238  141.6974  113.7508 C.3      45        0    0.0000
    704 C          95.8474  142.6262  114.5275 C.3      45        0    0.0000
    705 C          95.0944  142.5975  115.8617 C.3      45        0    0.0000
    706 C          94.1548  143.7849  116.0896 C.3      45        0    0.0000
    707 H          95.9232  141.9562  117.7749 H        45        0    0.0000
    708 H          96.4946  143.5420  117.2529 H        45        0    0.0000
    709 H          97.7527  140.9939  116.6968 H        45        0    0.0000
    710 H          98.2688  142.6088  116.2074 H        45        0    0.0000
    711 H          96.5398  140.5989  114.7357 H        45        0    0.0000
    712 H          98.5597  142.7030  113.7863 H        45        0    0.0000
    713 H          97.7506  141.5507  112.7304 H        45        0    0.0000
    714 H          95.2040  142.3427  113.6885 H        45        0    0.0000
    715 H          96.2551  143.6251  114.3278 H        45        0    0.0000
    716 H          94.5250  141.6586  115.9230 H        45        0    0.0000
    717 H          94.7304  144.6806  116.3509 H        45        0    0.0000
    718 H          93.5002  143.5699  116.9427 H        45        0    0.0000
    719 C          90.9647  146.8743  115.9712 C.3      46        0    0.0000
    720 C          92.1024  145.9102  116.2708 C.3      46        0    0.0000
    721 C          91.9809  144.8567  115.1626 C.3      46        0    0.0000
    722 C          93.2682  144.0836  114.8496 C.3      46        0    0.0000
    723 C          91.3378  145.5843  113.9640 C.3      46        0    0.0000
    724 C          91.0241  147.0117  114.4484 C.3      46        0    0.0000
    725 C          89.7406  147.6155  113.8730 C.3      46        0    0.0000
    726 H          90.0082  146.4445  116.2928 H        46        0    0.0000
    727 H          91.0970  147.8346  116.4789 H        46        0    0.0000
    728 H          93.0569  146.4460  116.2287 H        46        0    0.0000
    729 H          92.0109  145.4675  117.2676 H        46        0    0.0000
    730 H          91.2483  144.1115  115.5069 H        46        0    0.0000
    731 H          93.0048  143.1335  114.3696 H        46        0    0.0000
    732 H          93.8584  144.6508  114.1201 H        46        0    0.0000
    733 H          90.4224  145.0537  113.6738 H        46        0    0.0000
    734 H          91.9834  145.6093  113.0799 H        46        0    0.0000
    735 H          91.8784  147.6558  114.1940 H        46        0    0.0000
    736 H          89.8533  148.6996  113.7530 H        46        0    0.0000
    737 H          89.5644  147.2048  112.8717 H        46        0    0.0000
    738 C          86.3441  150.1560  113.4169 C.3      47        0    0.0000
    739 C          87.3608  149.0459  113.1900 C.3      47        0    0.0000
    740 C          87.3120  148.2635  114.5065 C.3      47        0    0.0000
    741 C          88.4960  147.3248  114.7577 C.3      47        0    0.0000
    742 C          87.0597  149.3217  115.5983 C.3      47        0    0.0000
    743 C          86.6414  150.6036  114.8518 C.3      47        0    0.0000
    744 C          85.5407  151.4299  115.5241 C.3      47        0    0.0000
    745 H          86.4634  150.9728  112.6983 H        47        0    0.0000
    746 H          85.3297  149.7558  113.3118 H        47        0    0.0000
    747 H          87.0990  148.4212  112.3304 H        47        0    0.0000
    748 H          88.3491  149.4813  113.0058 H        47        0    0.0000
    749 H          86.4133  147.6295  114.4675 H        47        0    0.0000
    750 H          88.7895  147.3930  115.8120 H        47        0    0.0000
    751 H          88.1758  146.2903  114.5862 H        47        0    0.0000
    752 H          87.9474  149.5257  116.2067 H        47        0    0.0000
    753 H          86.2893  148.9599  116.2877 H        47        0    0.0000
    754 H          87.5323  151.2480  114.8068 H        47        0    0.0000
    755 H          85.5406  151.2181  116.5999 H        47        0    0.0000
    756 H          85.7738  152.4955  115.4128 H        47        0    0.0000
    757 C          82.6480  154.6181  114.3993 C.3      48        0    0.0000
    758 C          83.8124  153.7400  114.8314 C.3      48        0    0.0000
    759 C          83.1619  152.3702  115.0628 C.3      48        0    0.0000
    760 C          84.1107  151.1691  114.9626 C.3      48        0    0.0000
    761 C          81.9374  152.3264  114.1257 C.3      48        0    0.0000
    762 C          81.8664  153.7079  113.4497 C.3      48        0    0.0000
    763 C          80.4480  154.2231  113.1935 C.3      48        0    0.0000
    764 H          82.0406  154.8982  115.2686 H        48        0    0.0000
    765 H          82.9868  155.5353  113.9080 H        48        0    0.0000
    766 H          84.5643  153.7112  114.0353 H        48        0    0.0000
    767 H          84.2972  154.1204  115.7359 H        48        0    0.0000
    768 H          82.7702  152.3703  116.0909 H        48        0    0.0000
    769 H          83.6708  150.3222  115.5027 H        48        0    0.0000
    770 H          84.1924  150.8636  113.9127 H        48        0    0.0000
    771 H          81.0381  152.1301  114.7227 H        48        0    0.0000
    772 H          81.9991  151.5314  113.3751 H        48        0    0.0000
    773 H          82.4139  153.6524  112.4975 H        48        0    0.0000
    774 H          80.1545  154.9296  113.9789 H        48        0    0.0000
    775 H          80.4294  154.7782  112.2481 H        48        0    0.0000
    776 C          78.1885  152.1608  110.2089 C.3      49        0    0.0000
    777 C          78.5072  153.5411  110.7897 C.3      49        0    0.0000
    778 C          78.1705  153.4751  112.2834 C.3      49        0    0.0000
    779 C          79.4012  153.0762  113.1193 C.3      49        0    0.0000
    780 C          77.0264  152.4535  112.3099 C.3      49        0    0.0000
    781 C          77.4554  151.3767  111.3100 C.3      49        0    0.0000
    782 C          76.2723  150.5386  110.8123 C.3      49        0    0.0000
    783 H          77.5844  152.2718  109.3013 H        49        0    0.0000
    784 H          79.1100  151.6405  109.9237 H        49        0    0.0000
    785 H          77.8624  154.2856  110.3058 H        49        0    0.0000
    786 H          79.5424  153.8382  110.5932 H        49        0    0.0000
    787 H          77.8087  154.4528  112.6267 H        49        0    0.0000
    788 H          79.8803  152.2025  112.6610 H        49        0    0.0000
    789 H          79.1133  152.7783  114.1332 H        49        0    0.0000
    790 H          76.0998  152.9371  111.9738 H        49        0    0.0000
    791 H          76.8358  152.0352  113.3027 H        49        0    0.0000
    792 H          78.1799  150.7140  111.8038 H        49        0    0.0000
    793 H          76.0595  149.7245  111.5148 H        49        0    0.0000
    794 H          76.5336  150.0725  109.8550 H        49        0    0.0000
    795 C          74.9938  151.4027  110.6147 C.3      50        0    0.0000
    796 C          74.6996  151.7556  109.1496 C.3      50        0    0.0000
    797 H          74.1509  150.8138  110.9988 H        50        0    0.0000
    798 H          75.0565  152.3031  111.2370 H        50        0    0.0000
    799 H          75.5953  151.6497  108.5263 H        50        0    0.0000
    800 H          73.9644  151.0361  108.7671 H        50        0    0.0000
    801 C          71.4551  154.3593  111.4126 C.3      51        0    0.0000
    802 C          72.7623  153.6333  111.1338 C.3      51        0    0.0000
    803 C          72.7178  153.3829  109.6211 C.3      51        0    0.0000
    804 C          74.0824  153.1830  108.9497 C.3      51        0    0.0000
    805 C          71.8519  154.5175  109.0358 C.3      51        0    0.0000
    806 C          71.3481  155.3353  110.2391 C.3      51        0    0.0000
    807 C          69.9330  155.8977  110.0835 C.3      51        0    0.0000
    808 H          70.6192  153.6491  111.4143 H        51        0    0.0000
    809 H          71.4700  154.8734  112.3785 H        51        0    0.0000
    810 H          73.6043  154.2718  111.4223 H        51        0    0.0000
    811 H          72.8404  152.7002  111.7006 H        51        0    0.0000
    812 H          72.1571  152.4490  109.4666 H        51        0    0.0000
    813 H          73.9813  153.3741  107.8746 H        51        0    0.0000
    814 H          74.7850  153.9305  109.3367 H        51        0    0.0000
    815 H          71.0164  154.0771  108.4775 H        51        0    0.0000
    816 H          72.3987  155.1574  108.3353 H        51        0    0.0000
    817 H          72.0537  156.1608  110.4125 H        51        0    0.0000
    818 H          69.2197  155.2899  110.6525 H        51        0    0.0000
    819 H          69.8957  156.9075  110.5092 H        51        0    0.0000
    820 C          68.9667  159.1904  108.2591 C.3      52        0    0.0000
    821 C          68.3574  158.1584  109.2119 C.3      52        0    0.0000
    822 C          68.2319  156.8525  108.4195 C.3      52        0    0.0000
    823 C          69.4780  155.9651  108.5985 C.3      52        0    0.0000
    824 C          68.0165  157.3641  106.9894 C.3      52        0    0.0000
    825 C          68.9767  158.5494  106.8614 C.3      52        0    0.0000
    826 C          68.5824  159.4991  105.7245 C.3      52        0    0.0000
    827 H          68.3799  160.1154  108.2912 H        52        0    0.0000
    828 H          69.9879  159.4431  108.5667 H        52        0    0.0000
    829 H          67.3574  158.4990  109.5093 H        52        0    0.0000
    830 H          68.9451  158.0519  110.1294 H        52        0    0.0000
    831 H          67.3475  156.2966  108.7564 H        52        0    0.0000
    832 H          70.3026  156.3778  108.0047 H        52        0    0.0000
    833 H          69.3008  154.9511  108.2244 H        52        0    0.0000
    834 H          66.9780  157.7021  106.8770 H        52        0    0.0000
    835 H          68.1993  156.6068  106.2213 H        52        0    0.0000
    836 H          69.9855  158.1590  106.6669 H        52        0    0.0000
    837 H          68.8821  159.0804  104.7567 H        52        0    0.0000
    838 H          69.1189  160.4482  105.8403 H        52        0    0.0000
    839 C          67.0536  159.7874  105.7155 C.3      53        0    0.0000
    840 C          66.4549  159.9353  104.3095 C.3      53        0    0.0000
    841 H          66.9068  160.7350  106.2495 H        53        0    0.0000
    842 H          66.5291  159.0175  106.2935 H        53        0    0.0000
    843 H          66.7937  160.8931  103.8942 H        53        0    0.0000
    844 H          66.8231  159.1534  103.6349 H        53        0    0.0000
    845 C          63.5592  161.5815  107.4212 C.3      54        0    0.0000
    846 C          64.5625  161.4946  106.2813 C.3      54        0    0.0000
    847 C          64.2796  160.1164  105.6800 C.3      54        0    0.0000
    848 C          64.8873  159.9601  104.2839 C.3      54        0    0.0000
    849 C          62.7449  160.0030  105.7308 C.3      54        0    0.0000
    850 C          62.2776  160.9944  106.8162 C.3      54        0    0.0000
    851 C          61.2715  160.4346  107.8298 C.3      54        0    0.0000
    852 H          63.4158  162.6118  107.7616 H        54        0    0.0000
    853 H          63.9206  160.9947  108.2726 H        54        0    0.0000
    854 H          64.3768  162.2911  105.5504 H        54        0    0.0000
    855 H          65.5938  161.5879  106.6353 H        54        0    0.0000
    856 H          64.7022  159.3546  106.3512 H        54        0    0.0000
    857 H          64.5192  159.0414  103.8119 H        54        0    0.0000
    858 H          64.5587  160.7926  103.6504 H        54        0    0.0000
    859 H          62.2942  160.2858  104.7713 H        54        0    0.0000
    860 H          62.4401  158.9706  105.9320 H        54        0    0.0000
    861 H          61.7649  161.8147  106.2920 H        54        0    0.0000
    862 H          61.0689  161.1965  108.5917 H        54        0    0.0000
    863 H          61.7268  159.5835  108.3500 H        54        0    0.0000
    864 C          60.0370  161.7348  103.8557 C.3      55        0    0.0000
    865 C          59.5224  161.6647  105.2853 C.3      55        0    0.0000
    866 C          59.8053  160.2146  105.6975 C.3      55        0    0.0000
    867 C          59.9219  159.9737  107.2079 C.3      55        0    0.0000
    868 C          61.0238  159.7733  104.8608 C.3      55        0    0.0000
    869 C          61.3497  160.9518  103.9253 C.3      55        0    0.0000
    870 C          61.8547  160.5473  102.5380 C.3      55        0    0.0000
    871 H          59.3258  161.2552  103.1722 H        55        0    0.0000
    872 H          60.1877  162.7669  103.5247 H        55        0    0.0000
    873 H          60.0669  162.3844  105.9061 H        55        0    0.0000
    874 H          58.4569  161.9073  105.3483 H        55        0    0.0000
    875 H          58.9527  159.6105  105.3527 H        55        0    0.0000
    876 H          59.1041  160.4985  107.7161 H        55        0    0.0000
    877 H          59.7840  158.9052  107.4120 H        55        0    0.0000
    878 H          60.7580  158.8750  104.2897 H        55        0    0.0000
    879 H          61.8939  159.5136  105.4730 H        55        0    0.0000
    880 H          62.1019  161.5841  104.4192 H        55        0    0.0000
    881 H          61.1274  159.8892  102.0479 H        55        0    0.0000
    882 H          61.9432  161.4416  101.9098 H        55        0    0.0000
    883 H          62.8230  160.0482  102.5747 H        55        0    0.0000
    884 H         100.7442   78.5253  201.1038 H         0        0    0.0000
@<TRIPOS>BOND
     1     1     2      1
     2     1     6      1
     3     1     8      1
     4     1     9      1
     5     2     3      1
     6     2    10      1
     7     2    11      1
     8     3     4      1
     9     3     5      1
    10     3    12      1
    11     4    13      1
    12     4    14      1
    13     4   884      H
    14     5     6      1
    15     5    15      1
    16     5    16      1
    17     6     7      1
    18     6    17      1
    19     7    18      1
    20     7    19      1
    21     7    23      1
    22    20    21      1
    23    20    25      1
    24    20    27      1
    25    20    28      1
    26    21    22      1
    27    21    29      1
    28    21    30      1
    29    22    23      1
    30    22    24      1
    31    22    31      1
    32    23    32      1
    33    23    33      1
    34    24    25      1
    35    24    34      1
    36    24    35      1
    37    25    26      1
    38    25    36      1
    39    26    37      1
    40    26    38      1
    41    26    39      1
    42    39    40      1
    43    39    41      1
    44    39    42      1
    45    40    43      1
    46    40    44      1
    47    40    48      1
    48    45    46      1
    49    45    50      1
    50    45    52      1
    51    45    53      1
    52    46    47      1
    53    46    54      1
    54    46    55      1
    55    47    48      1
    56    47    49      1
    57    47    56      1
    58    48    57      1
    59    48    58      1
    60    49    50      1
    61    49    59      1
    62    49    60      1
    63    50    51      1
    64    50    61      1
    65    51    62      1
    66    51    63      1
    67    51    64      1
    68    64    65      1
    69    64    66      1
    70    64    67      1
    71    65    68      1
    72    65    69      1
    73    65    73      1
    74    70    71      1
    75    70    75      1
    76    70    77      1
    77    70    78      1
    78    71    72      1
    79    71    79      1
    80    71    80      1
    81    72    73      1
    82    72    74      1
    83    72    81      1
    84    73    82      1
    85    73    83      1
    86    74    75      1
    87    74    84      1
    88    74    85      1
    89    75    76      1
    90    75    86      1
    91    76    87      1
    92    76    88      1
    93    76    92      1
    94    89    90      1
    95    89    94      1
    96    89    96      1
    97    89    97      1
    98    90    91      1
    99    90    98      1
   100    90    99      1
   101    91    92      1
   102    91    93      1
   103    91   100      1
   104    92   101      1
   105    92   102      1
   106    93    94      1
   107    93   103      1
   108    93   104      1
   109    94    95      1
   110    94   105      1
   111    95   106      1
   112    95   107      1
   113    95   108      1
   114   108   109      1
   115   108   110      1
   116   108   111      1
   117   109   112      1
   118   109   113      1
   119   109   114      1
   120   114   115      1
   121   114   116      1
   122   114   117      1
   123   115   118      1
   124   115   119      1
   125   115   120      1
   126   120   121      1
   127   120   122      1
   128   120   123      1
   129   121   124      1
   130   121   125      1
   131   121   126      1
   132   126   127      1
   133   126   128      1
   134   126   129      1
   135   127   130      1
   136   127   131      1
   137   127   135      1
   138   132   133      1
   139   132   137      1
   140   132   139      1
   141   132   140      1
   142   133   134      1
   143   133   141      1
   144   133   142      1
   145   134   135      1
   146   134   136      1
   147   134   143      1
   148   135   144      1
   149   135   145      1
   150   136   137      1
   151   136   146      1
   152   136   147      1
   153   137   138      1
   154   137   148      1
   155   138   149      1
   156   138   150      1
   157   138   154      1
   158   151   152      1
   159   151   156      1
   160   151   158      1
   161   151   159      1
   162   152   153      1
   163   152   160      1
   164   152   161      1
   165   153   154      1
   166   153   155      1
   167   153   162      1
   168   154   163      1
   169   154   164      1
   170   155   156      1
   171   155   165      1
   172   155   166      1
   173   156   157      1
   174   156   167      1
   175   157   168      1
   176   157   169      1
   177   157   170      1
   178   170   171      1
   179   170   172      1
   180   170   173      1
   181   171   174      1
   182   171   175      1
   183   171   179      1
   184   176   177      1
   185   176   181      1
   186   176   183      1
   187   176   184      1
   188   177   178      1
   189   177   185      1
   190   177   186      1
   191   178   179      1
   192   178   180      1
   193   178   187      1
   194   179   188      1
   195   179   189      1
   196   180   181      1
   197   180   190      1
   198   180   191      1
   199   181   182      1
   200   181   192      1
   201   182   193      1
   202   182   194      1
   203   182   195      1
   204   195   196      1
   205   195   197      1
   206   195   198      1
   207   196   199      1
   208   196   200      1
   209   196   204      1
   210   201   202      1
   211   201   206      1
   212   201   208      1
   213   201   209      1
   214   202   203      1
   215   202   210      1
   216   202   211      1
   217   203   204      1
   218   203   205      1
   219   203   212      1
   220   204   213      1
   221   204   214      1
   222   205   206      1
   223   205   215      1
   224   205   216      1
   225   206   207      1
   226   206   217      1
   227   207   218      1
   228   207   219      1
   229   207   223      1
   230   220   221      1
   231   220   225      1
   232   220   227      1
   233   220   228      1
   234   221   222      1
   235   221   229      1
   236   221   230      1
   237   222   223      1
   238   222   224      1
   239   222   231      1
   240   223   232      1
   241   223   233      1
   242   224   225      1
   243   224   234      1
   244   224   235      1
   245   225   226      1
   246   225   236      1
   247   226   237      1
   248   226   238      1
   249   226   242      1
   250   239   240      1
   251   239   244      1
   252   239   246      1
   253   239   247      1
   254   240   241      1
   255   240   248      1
   256   240   249      1
   257   241   242      1
   258   241   243      1
   259   241   250      1
   260   242   251      1
   261   242   252      1
   262   243   244      1
   263   243   253      1
   264   243   254      1
   265   244   245      1
   266   244   255      1
   267   245   256      1
   268   245   257      1
   269   245   261      1
   270   258   259      1
   271   258   263      1
   272   258   265      1
   273   258   266      1
   274   259   260      1
   275   259   267      1
   276   259   268      1
   277   260   261      1
   278   260   262      1
   279   260   269      1
   280   261   270      1
   281   261   271      1
   282   262   263      1
   283   262   272      1
   284   262   273      1
   285   263   264      1
   286   263   274      1
   287   264   275      1
   288   264   276      1
   289   264   277      1
   290   277   278      1
   291   277   279      1
   292   277   280      1
   293   278   281      1
   294   278   282      1
   295   278   286      1
   296   283   284      1
   297   283   288      1
   298   283   290      1
   299   283   291      1
   300   284   285      1
   301   284   292      1
   302   284   293      1
   303   285   286      1
   304   285   287      1
   305   285   294      1
   306   286   295      1
   307   286   296      1
   308   287   288      1
   309   287   297      1
   310   287   298      1
   311   288   289      1
   312   288   299      1
   313   289   300      1
   314   289   301      1
   315   289   305      1
   316   302   303      1
   317   302   307      1
   318   302   309      1
   319   302   310      1
   320   303   304      1
   321   303   311      1
   322   303   312      1
   323   304   305      1
   324   304   306      1
   325   304   313      1
   326   305   314      1
   327   305   315      1
   328   306   307      1
   329   306   316      1
   330   306   317      1
   331   307   308      1
   332   307   318      1
   333   308   319      1
   334   308   320      1
   335   308   324      1
   336   321   322      1
   337   321   326      1
   338   321   328      1
   339   321   329      1
   340   322   323      1
   341   322   330      1
   342   322   331      1
   343   323   324      1
   344   323   325      1
   345   323   332      1
   346   324   333      1
   347   324   334      1
   348   325   326      1
   349   325   335      1
   350   325   336      1
   351   326   327      1
   352   326   337      1
   353   327   338      1
   354   327   339      1
   355   327   343      1
   356   340   341      1
   357   340   345      1
   358   340   347      1
   359   340   348      1
   360   341   342      1
   361   341   349      1
   362   341   350      1
   363   342   343      1
   364   342   344      1
   365   342   351      1
   366   343   352      1
   367   343   353      1
   368   344   345      1
   369   344   354      1
   370   344   355      1
   371   345   346      1
   372   345   356      1
   373   346   357      1
   374   346   358      1
   375   346   362      1
   376   359   360      1
   377   359   364      1
   378   359   366      1
   379   359   367      1
   380   360   361      1
   381   360   368      1
   382   360   369      1
   383   361   362      1
   384   361   363      1
   385   361   370      1
   386   362   371      1
   387   362   372      1
   388   363   364      1
   389   363   373      1
   390   363   374      1
   391   364   365      1
   392   364   375      1
   393   365   376      1
   394   365   377      1
   395   365   381      1
   396   378   379      1
   397   378   383      1
   398   378   385      1
   399   378   386      1
   400   379   380      1
   401   379   387      1
   402   379   388      1
   403   380   381      1
   404   380   382      1
   405   380   389      1
   406   381   390      1
   407   381   391      1
   408   382   383      1
   409   382   392      1
   410   382   393      1
   411   383   384      1
   412   383   394      1
   413   384   395      1
   414   384   396      1
   415   384   397      1
   416   397   398      1
   417   397   399      1
   418   397   400      1
   419   398   401      1
   420   398   402      1
   421   398   406      1
   422   403   404      1
   423   403   408      1
   424   403   410      1
   425   403   411      1
   426   404   405      1
   427   404   412      1
   428   404   413      1
   429   405   406      1
   430   405   407      1
   431   405   414      1
   432   406   415      1
   433   406   416      1
   434   407   408      1
   435   407   417      1
   436   407   418      1
   437   408   409      1
   438   408   419      1
   439   409   420      1
   440   409   421      1
   441   409   425      1
   442   422   423      1
   443   422   427      1
   444   422   429      1
   445   422   430      1
   446   423   424      1
   447   423   431      1
   448   423   432      1
   449   424   425      1
   450   424   426      1
   451   424   433      1
   452   425   434      1
   453   425   435      1
   454   426   427      1
   455   426   436      1
   456   426   437      1
   457   427   428      1
   458   427   438      1
   459   428   439      1
   460   428   440      1
   461   428   444      1
   462   441   442      1
   463   441   446      1
   464   441   448      1
   465   441   449      1
   466   442   443      1
   467   442   450      1
   468   442   451      1
   469   443   444      1
   470   443   445      1
   471   443   452      1
   472   444   453      1
   473   444   454      1
   474   445   446      1
   475   445   455      1
   476   445   456      1
   477   446   447      1
   478   446   457      1
   479   447   458      1
   480   447   459      1
   481   447   463      1
   482   460   461      1
   483   460   465      1
   484   460   467      1
   485   460   468      1
   486   461   462      1
   487   461   469      1
   488   461   470      1
   489   462   463      1
   490   462   464      1
   491   462   471      1
   492   463   472      1
   493   463   473      1
   494   464   465      1
   495   464   474      1
   496   464   475      1
   497   465   466      1
   498   465   476      1
   499   466   477      1
   500   466   478      1
   501   466   479      1
   502   479   480      1
   503   479   481      1
   504   479   482      1
   505   480   483      1
   506   480   484      1
   507   480   488      1
   508   485   486      1
   509   485   490      1
   510   485   492      1
   511   485   493      1
   512   486   487      1
   513   486   494      1
   514   486   495      1
   515   487   488      1
   516   487   489      1
   517   487   496      1
   518   488   497      1
   519   488   498      1
   520   489   490      1
   521   489   499      1
   522   489   500      1
   523   490   491      1
   524   490   501      1
   525   491   502      1
   526   491   503      1
   527   491   507      1
   528   504   505      1
   529   504   509      1
   530   504   511      1
   531   504   512      1
   532   505   506      1
   533   505   513      1
   534   505   514      1
   535   506   507      1
   536   506   508      1
   537   506   515      1
   538   507   516      1
   539   507   517      1
   540   508   509      1
   541   508   518      1
   542   508   519      1
   543   509   510      1
   544   509   520      1
   545   510   521      1
   546   510   522      1
   547   510   526      1
   548   523   524      1
   549   523   528      1
   550   523   530      1
   551   523   531      1
   552   524   525      1
   553   524   532      1
   554   524   533      1
   555   525   526      1
   556   525   527      1
   557   525   534      1
   558   526   535      1
   559   526   536      1
   560   527   528      1
   561   527   537      1
   562   527   538      1
   563   528   529      1
   564   528   539      1
   565   529   540      1
   566   529   541      1
   567   529   545      1
   568   542   543      1
   569   542   547      1
   570   542   549      1
   571   542   550      1
   572   543   544      1
   573   543   551      1
   574   543   552      1
   575   544   545      1
   576   544   546      1
   577   544   553      1
   578   545   554      1
   579   545   555      1
   580   546   547      1
   581   546   556      1
   582   546   557      1
   583   547   548      1
   584   547   558      1
   585   548   559      1
   586   548   560      1
   587   548   564      1
   588   561   562      1
   589   561   566      1
   590   561   568      1
   591   561   569      1
   592   562   563      1
   593   562   570      1
   594   562   571      1
   595   563   564      1
   596   563   565      1
   597   563   572      1
   598   564   573      1
   599   564   574      1
   600   565   566      1
   601   565   575      1
   602   565   576      1
   603   566   567      1
   604   566   577      1
   605   567   578      1
   606   567   579      1
   607   567   583      1
   608   580   581      1
   609   580   585      1
   610   580   587      1
   611   580   588      1
   612   581   582      1
   613   581   589      1
   614   581   590      1
   615   582   583      1
   616   582   584      1
   617   582   591      1
   618   583   592      1
   619   583   593      1
   620   584   585      1
   621   584   594      1
   622   584   595      1
   623   585   586      1
   624   585   596      1
   625   586   597      1
   626   586   598      1
   627   586   602      1
   628   599   600      1
   629   599   604      1
   630   599   606      1
   631   599   607      1
   632   600   601      1
   633   600   608      1
   634   600   609      1
   635   601   602      1
   636   601   603      1
   637   601   610      1
   638   602   611      1
   639   602   612      1
   640   603   604      1
   641   603   613      1
   642   603   614      1
   643   604   605      1
   644   604   615      1
   645   605   616      1
   646   605   617      1
   647   605   621      1
   648   618   619      1
   649   618   623      1
   650   618   625      1
   651   618   626      1
   652   619   620      1
   653   619   627      1
   654   619   628      1
   655   620   621      1
   656   620   622      1
   657   620   629      1
   658   621   630      1
   659   621   631      1
   660   622   623      1
   661   622   632      1
   662   622   633      1
   663   623   624      1
   664   623   634      1
   665   624   635      1
   666   624   636      1
   667   624   640      1
   668   637   638      1
   669   637   642      1
   670   637   644      1
   671   637   645      1
   672   638   639      1
   673   638   646      1
   674   638   647      1
   675   639   640      1
   676   639   641      1
   677   639   648      1
   678   640   649      1
   679   640   650      1
   680   641   642      1
   681   641   651      1
   682   641   652      1
   683   642   643      1
   684   642   653      1
   685   643   654      1
   686   643   655      1
   687   643   659      1
   688   656   657      1
   689   656   661      1
   690   656   663      1
   691   656   664      1
   692   657   658      1
   693   657   665      1
   694   657   666      1
   695   658   659      1
   696   658   660      1
   697   658   667      1
   698   659   668      1
   699   659   669      1
   700   660   661      1
   701   660   670      1
   702   660   671      1
   703   661   662      1
   704   661   672      1
   705   662   673      1
   706   662   674      1
   707   662   675      1
   708   675   676      1
   709   675   677      1
   710   675   678      1
   711   676   679      1
   712   676   680      1
   713   676   684      1
   714   681   682      1
   715   681   686      1
   716   681   688      1
   717   681   689      1
   718   682   683      1
   719   682   690      1
   720   682   691      1
   721   683   684      1
   722   683   685      1
   723   683   692      1
   724   684   693      1
   725   684   694      1
   726   685   686      1
   727   685   695      1
   728   685   696      1
   729   686   687      1
   730   686   697      1
   731   687   698      1
   732   687   699      1
   733   687   703      1
   734   700   701      1
   735   700   705      1
   736   700   707      1
   737   700   708      1
   738   701   702      1
   739   701   709      1
   740   701   710      1
   741   702   703      1
   742   702   704      1
   743   702   711      1
   744   703   712      1
   745   703   713      1
   746   704   705      1
   747   704   714      1
   748   704   715      1
   749   705   706      1
   750   705   716      1
   751   706   717      1
   752   706   718      1
   753   706   722      1
   754   719   720      1
   755   719   724      1
   756   719   726      1
   757   719   727      1
   758   720   721      1
   759   720   728      1
   760   720   729      1
   761   721   722      1
   762   721   723      1
   763   721   730      1
   764   722   731      1
   765   722   732      1
   766   723   724      1
   767   723   733      1
   768   723   734      1
   769   724   725      1
   770   724   735      1
   771   725   736      1
   772   725   737      1
   773   725   741      1
   774   738   739      1
   775   738   743      1
   776   738   745      1
   777   738   746      1
   778   739   740      1
   779   739   747      1
   780   739   748      1
   781   740   741      1
   782   740   742      1
   783   740   749      1
   784   741   750      1
   785   741   751      1
   786   742   743      1
   787   742   752      1
   788   742   753      1
   789   743   744      1
   790   743   754      1
   791   744   755      1
   792   744   756      1
   793   744   760      1
   794   757   758      1
   795   757   762      1
   796   757   764      1
   797   757   765      1
   798   758   759      1
   799   758   766      1
   800   758   767      1
   801   759   760      1
   802   759   761      1
   803   759   768      1
   804   760   769      1
   805   760   770      1
   806   761   762      1
   807   761   771      1
   808   761   772      1
   809   762   763      1
   810   762   773      1
   811   763   774      1
   812   763   775      1
   813   763   779      1
   814   776   777      1
   815   776   781      1
   816   776   783      1
   817   776   784      1
   818   777   778      1
   819   777   785      1
   820   777   786      1
   821   778   779      1
   822   778   780      1
   823   778   787      1
   824   779   788      1
   825   779   789      1
   826   780   781      1
   827   780   790      1
   828   780   791      1
   829   781   782      1
   830   781   792      1
   831   782   793      1
   832   782   794      1
   833   782   795      1
   834   795   796      1
   835   795   797      1
   836   795   798      1
   837   796   799      1
   838   796   800      1
   839   796   804      1
   840   801   802      1
   841   801   806      1
   842   801   808      1
   843   801   809      1
   844   802   803      1
   845   802   810      1
   846   802   811      1
   847   803   804      1
   848   803   805      1
   849   803   812      1
   850   804   813      1
   851   804   814      1
   852   805   806      1
   853   805   815      1
   854   805   816      1
   855   806   807      1
   856   806   817      1
   857   807   818      1
   858   807   819      1
   859   807   823      1
   860   820   821      1
   861   820   825      1
   862   820   827      1
   863   820   828      1
   864   821   822      1
   865   821   829      1
   866   821   830      1
   867   822   823      1
   868   822   824      1
   869   822   831      1
   870   823   832      1
   871   823   833      1
   872   824   825      1
   873   824   834      1
   874   824   835      1
   875   825   826      1
   876   825   836      1
   877   826   837      1
   878   826   838      1
   879   826   839      1
   880   839   840      1
   881   839   841      1
   882   839   842      1
   883   840   843      1
   884   840   844      1
   885   840   848      1
   886   845   846      1
   887   845   850      1
   888   845   852      1
   889   845   853      1
   890   846   847      1
   891   846   854      1
   892   846   855      1
   893   847   848      1
   894   847   849      1
   895   847   856      1
   896   848   857      1
   897   848   858      1
   898   849   850      1
   899   849   859      1
   900   849   860      1
   901   850   851      1
   902   850   861      1
   903   851   862      1
   904   851   863      1
   905   851   867      1
   906   864   865      1
   907   864   869      1
   908   864   871      1
   909   864   872      1
   910   865   866      1
   911   865   873      1
   912   865   874      1
   913   866   867      1
   914   866   868      1
   915   866   875      1
   916   867   876      1
   917   867   877      1
   918   868   869      1
   919   868   878      1
   920   868   879      1
   921   869   870      1
   922   869   880      1
   923   870   881      1
   924   870   882      1
   925   870   883      H
