###
### Created by PolyChef-cpp17 on Wed Feb 26 21:14:13 2025
###

@<TRIPOS>MOLECULE
NO_INFO
1487 1555 1 0 0
SMALL
USER_CHARGES


@<TRIPOS>ATOM
      1 C         106.3209   68.5947  189.3108 C.3       0        0    0.0000
      2 C         106.7953   67.4119  188.4781 C.3       0        0    0.0000
      3 C         108.3182   67.4722  188.6355 C.3       0        0    0.0000
      4 C         109.1179   66.6662  187.6074 C.3       0        0    0.0000
      5 C         108.6590   68.9732  188.7137 C.3       0        0    0.0000
      6 C         107.3169   69.6973  188.9368 C.3       0        0    0.0000
      7 C         107.3627   70.8936  189.8924 C.3       0        0    0.0000
      8 H         105.2897   68.8742  189.0736 H         0        0    0.0000
      9 H         106.3682   68.3404  190.3754 H         0        0    0.0000
     10 H         106.3817   66.4654  188.8396 H         0        0    0.0000
     11 H         106.4831   67.5439  187.4363 H         0        0    0.0000
     12 H         108.5542   67.0429  189.6210 H         0        0    0.0000
     13 H         108.5989   66.7021  186.6422 H         0        0    0.0000
     14 H         110.0937   67.1434  187.4582 H         0        0    0.0000
     15 H         109.1312   69.3508  187.8004 H         0        0    0.0000
     16 H         109.3750   69.1443  189.5249 H         0        0    0.0000
     17 H         107.0039   70.0912  187.9580 H         0        0    0.0000
     18 H         106.3728   71.3640  189.9249 H         0        0    0.0000
     19 H         107.5742   70.5343  190.9065 H         0        0    0.0000
     20 C         109.2314   73.4937  186.2269 C.3       1        0    0.0000
     21 C         108.1399   72.9037  187.1232 C.3       1        0    0.0000
     22 C         108.8301   71.8777  188.0399 C.3       1        0    0.0000
     23 C         108.4187   71.9752  189.5141 C.3       1        0    0.0000
     24 C         110.3275   72.1282  187.8342 C.3       1        0    0.0000
     25 C         110.4471   72.5720  186.3723 C.3       1        0    0.0000
     26 C         110.4255   71.3825  185.3936 C.3       1        0    0.0000
     27 H         108.8896   73.6143  185.1945 H         1        0    0.0000
     28 H         109.4914   74.4932  186.5983 H         1        0    0.0000
     29 H         107.6395   73.7033  187.6803 H         1        0    0.0000
     30 H         107.3757   72.4049  186.5157 H         1        0    0.0000
     31 H         108.5982   70.8702  187.6660 H         1        0    0.0000
     32 H         109.3026   71.8352  190.1478 H         1        0    0.0000
     33 H         108.0236   72.9732  189.7362 H         1        0    0.0000
     34 H         110.9266   71.2400  188.0594 H         1        0    0.0000
     35 H         110.6733   72.9367  188.4913 H         1        0    0.0000
     36 H         111.3755   73.1408  186.2352 H         1        0    0.0000
     37 H         109.4073   71.1734  185.0473 H         1        0    0.0000
     38 H         110.7783   70.4811  185.9086 H         1        0    0.0000
     39 C         111.3470   71.6295  184.1640 C.3       2        0    0.0000
     40 C         111.2028   70.5774  183.0551 C.3       2        0    0.0000
     41 H         111.0643   72.6046  183.7471 H         2        0    0.0000
     42 H         112.3882   71.7201  184.4949 H         2        0    0.0000
     43 H         111.9057   69.7483  183.1980 H         2        0    0.0000
     44 H         110.1945   70.1489  183.1213 H         2        0    0.0000
     45 C         108.1436   69.9532  180.1850 C.3       3        0    0.0000
     46 C         109.2842   69.6790  181.1682 C.3       3        0    0.0000
     47 C         110.5398   70.3514  180.5844 C.3       3        0    0.0000
     48 C         111.3547   71.1550  181.6053 C.3       3        0    0.0000
     49 C         110.0094   71.2253  179.4433 C.3       3        0    0.0000
     50 C         108.8033   70.4547  178.8957 C.3       3        0    0.0000
     51 C         109.2164   69.3157  177.9444 C.3       3        0    0.0000
     52 H         107.5082   69.0738  180.0428 H         3        0    0.0000
     53 H         107.5067   70.7472  180.5955 H         3        0    0.0000
     54 H         109.0217   70.0580  182.1620 H         3        0    0.0000
     55 H         109.4518   68.6001  181.2668 H         3        0    0.0000
     56 H         111.1779   69.5700  180.1474 H         3        0    0.0000
     57 H         112.4151   71.1249  181.3280 H         3        0    0.0000
     58 H         111.0527   72.2086  181.5921 H         3        0    0.0000
     59 H         110.7737   71.4151  178.6827 H         3        0    0.0000
     60 H         109.6774   72.1978  179.8295 H         3        0    0.0000
     61 H         108.1334   71.1459  178.3686 H         3        0    0.0000
     62 H         108.3427   68.7525  177.5983 H         3        0    0.0000
     63 H         109.8593   68.6082  178.4814 H         3        0    0.0000
     64 C         110.0057   69.8489  176.7136 C.3       4        0    0.0000
     65 C         111.4195   70.3465  177.0469 C.3       4        0    0.0000
     66 H         110.0965   69.0124  176.0089 H         4        0    0.0000
     67 H         109.4194   70.6239  176.2062 H         4        0    0.0000
     68 H         111.9189   69.6804  177.7603 H         4        0    0.0000
     69 H         112.0150   70.3223  176.1253 H         4        0    0.0000
     70 C         108.4784   73.1784  177.5216 C.3       5        0    0.0000
     71 C         109.2646   72.4047  176.4599 C.3       5        0    0.0000
     72 C         110.7363   72.7951  176.6351 C.3       5        0    0.0000
     73 C         111.4672   71.8210  177.5782 C.3       5        0    0.0000
     74 C         110.6269   74.2305  177.1651 C.3       5        0    0.0000
     75 C         109.4574   74.1831  178.1516 C.3       5        0    0.0000
     76 C         108.8610   75.5703  178.4160 C.3       5        0    0.0000
     77 H         107.6153   73.6695  177.0580 H         5        0    0.0000
     78 H         108.0911   72.4966  178.2874 H         5        0    0.0000
     79 H         108.9221   72.7206  175.4663 H         5        0    0.0000
     80 H         109.0930   71.3257  176.5295 H         5        0    0.0000
     81 H         111.2404   72.7924  175.6602 H         5        0    0.0000
     82 H         110.9882   71.8467  178.5645 H         5        0    0.0000
     83 H         112.5096   72.1212  177.7294 H         5        0    0.0000
     84 H         110.3954   74.9083  176.3330 H         5        0    0.0000
     85 H         111.5443   74.5939  177.6377 H         5        0    0.0000
     86 H         109.8208   73.7638  179.1003 H         5        0    0.0000
     87 H         109.1748   75.9390  179.3996 H         5        0    0.0000
     88 H         107.7672   75.4982  178.4375 H         5        0    0.0000
     89 C         110.2094   74.7226  174.1832 C.3       6        0    0.0000
     90 C         109.6258   74.7532  175.5982 C.3       6        0    0.0000
     91 C         110.2224   75.9897  176.2834 C.3       6        0    0.0000
     92 C         109.2727   76.5954  177.3206 C.3       6        0    0.0000
     93 C         110.5558   76.9130  175.1068 C.3       6        0    0.0000
     94 C         111.1342   75.9419  174.0723 C.3       6        0    0.0000
     95 C         111.2006   76.4943  172.6458 C.3       6        0    0.0000
     96 H         110.7596   73.7940  173.9972 H         6        0    0.0000
     97 H         109.3942   74.7694  173.4511 H         6        0    0.0000
     98 H         109.8711   73.8406  176.1521 H         6        0    0.0000
     99 H         108.5324   74.8145  175.5410 H         6        0    0.0000
    100 H         111.1614   75.6911  176.7719 H         6        0    0.0000
    101 H         108.3657   76.9507  176.8170 H         6        0    0.0000
    102 H         109.7344   77.4697  177.7941 H         6        0    0.0000
    103 H         111.2755   77.6887  175.3869 H         6        0    0.0000
    104 H         109.6519   77.4029  174.7235 H         6        0    0.0000
    105 H         112.1400   75.6397  174.3988 H         6        0    0.0000
    106 H         110.4212   76.0377  172.0246 H         6        0    0.0000
    107 H         112.1630   76.2216  172.1965 H         6        0    0.0000
    108 C         111.0559   78.0403  172.6034 C.3       7        0    0.0000
    109 C         111.9134   78.7178  171.5249 C.3       7        0    0.0000
    110 H         110.0019   78.2540  172.3843 H         7        0    0.0000
    111 H         111.2605   78.4578  173.5963 H         7        0    0.0000
    112 H         112.9300   78.3078  171.5078 H         7        0    0.0000
    113 H         111.4687   78.4948  170.5466 H         7        0    0.0000
    114 C         111.9755   80.2797  171.6484 C.3       8        0    0.0000
    115 C         111.9882   81.0122  170.2991 C.3       8        0    0.0000
    116 H         112.9085   80.5190  172.1746 H         8        0    0.0000
    117 H         111.1566   80.6327  172.2862 H         8        0    0.0000
    118 H         112.9257   81.5785  170.2280 H         8        0    0.0000
    119 H         111.9849   80.3051  169.4613 H         8        0    0.0000
    120 C         110.8214   82.0448  170.1237 C.3       9        0    0.0000
    121 C         110.9159   82.8808  168.8393 C.3       9        0    0.0000
    122 H         109.8894   81.4663  170.0855 H         9        0    0.0000
    123 H         110.7572   82.6842  171.0119 H         9        0    0.0000
    124 H         110.6153   82.2978  167.9609 H         9        0    0.0000
    125 H         110.2051   83.7130  168.9217 H         9        0    0.0000
    126 C         112.3289   83.5149  168.5945 C.3      10        0    0.0000
    127 C         112.4507   84.2727  167.2646 C.3      10        0    0.0000
    128 H         113.0497   82.6873  168.5820 H        10        0    0.0000
    129 H         112.5995   84.1534  169.4436 H        10        0    0.0000
    130 H         111.4652   84.6884  167.0182 H        10        0    0.0000
    131 H         113.1368   85.1234  167.3517 H        10        0    0.0000
    132 C         112.0637   85.1106  162.7747 C.3      11        0    0.0000
    133 C         111.7599   84.8473  164.2430 C.3      11        0    0.0000
    134 C         113.0207   84.1246  164.7285 C.3      11        0    0.0000
    135 C         112.8773   83.3714  166.0545 C.3      11        0    0.0000
    136 C         113.4892   83.2764  163.5299 C.3      11        0    0.0000
    137 C         112.6942   83.7922  162.3144 C.3      11        0    0.0000
    138 C         113.4724   83.8603  160.9969 C.3      11        0    0.0000
    139 H         111.1600   85.3544  162.2076 H        11        0    0.0000
    140 H         112.7586   85.9529  162.6859 H        11        0    0.0000
    141 H         111.5788   85.7744  164.7956 H        11        0    0.0000
    142 H         110.8661   84.2197  164.3291 H        11        0    0.0000
    143 H         113.7888   84.8962  164.8889 H        11        0    0.0000
    144 H         112.1377   82.5711  165.9335 H        11        0    0.0000
    145 H         113.8303   82.8859  166.2958 H        11        0    0.0000
    146 H         113.2981   82.2064  163.6649 H        11        0    0.0000
    147 H         114.5723   83.3836  163.4068 H        11        0    0.0000
    148 H         111.8683   83.0830  162.1531 H        11        0    0.0000
    149 H         114.1063   82.9699  160.9091 H        11        0    0.0000
    150 H         112.7645   83.8268  160.1603 H        11        0    0.0000
    151 C         115.8699   86.6400  163.9570 C.3      12        0    0.0000
    152 C         115.3561   85.4299  163.1725 C.3      12        0    0.0000
    153 C         114.3875   85.9804  162.1175 C.3      12        0    0.0000
    154 C         114.3661   85.1278  160.8458 C.3      12        0    0.0000
    155 C         114.8751   87.4187  161.9138 C.3      12        0    0.0000
    156 C         115.1904   87.8712  163.3435 C.3      12        0    0.0000
    157 C         116.0636   89.1255  163.4378 C.3      12        0    0.0000
    158 H         115.6370   86.5536  165.0238 H        12        0    0.0000
    159 H         116.9613   86.6971  163.8664 H        12        0    0.0000
    160 H         114.8545   84.7109  163.8291 H        12        0    0.0000
    161 H         116.2024   84.9100  162.7078 H        12        0    0.0000
    162 H         113.3808   86.0106  162.5592 H        12        0    0.0000
    163 H         115.3875   84.8079  160.6073 H        12        0    0.0000
    164 H         114.0145   85.7229  159.9949 H        12        0    0.0000
    165 H         114.1111   88.0470  161.4451 H        12        0    0.0000
    166 H         115.7750   87.4434  161.2865 H        12        0    0.0000
    167 H         114.2425   88.0399  163.8750 H        12        0    0.0000
    168 H         117.0340   88.8805  163.8852 H        12        0    0.0000
    169 H         115.5828   89.8520  164.1038 H        12        0    0.0000
    170 C         116.2865   89.7957  162.0543 C.3      13        0    0.0000
    171 C         115.6009   91.1614  161.9050 C.3      13        0    0.0000
    172 H         117.3685   89.9442  161.9449 H        13        0    0.0000
    173 H         115.9825   89.1074  161.2570 H        13        0    0.0000
    174 H         114.7646   91.2666  162.6059 H        13        0    0.0000
    175 H         116.3298   91.9388  162.1673 H        13        0    0.0000
    176 C         117.1463   91.8519  157.4167 C.3      14        0    0.0000
    177 C         117.1380   91.8587  158.9446 C.3      14        0    0.0000
    178 C         116.0408   90.8738  159.3840 C.3      14        0    0.0000
    179 C         115.1116   91.4727  160.4481 C.3      14        0    0.0000
    180 C         115.3278   90.4764  158.0823 C.3      14        0    0.0000
    181 C         116.4051   90.5805  156.9953 C.3      14        0    0.0000
    182 C         117.3494   89.3665  156.9249 C.3      14        0    0.0000
    183 H         116.5939   92.7287  157.0551 H        14        0    0.0000
    184 H         118.1604   91.9187  157.0103 H        14        0    0.0000
    185 H         116.9751   92.8744  159.3212 H        14        0    0.0000
    186 H         118.1083   91.5241  159.3302 H        14        0    0.0000
    187 H         116.5338   89.9835  159.7994 H        14        0    0.0000
    188 H         114.0895   91.1000  160.3146 H        14        0    0.0000
    189 H         115.0706   92.5612  160.3217 H        14        0    0.0000
    190 H         114.8784   89.4808  158.1480 H        14        0    0.0000
    191 H         114.5214   91.1867  157.8576 H        14        0    0.0000
    192 H         115.9385   90.7329  156.0137 H        14        0    0.0000
    193 H         117.3695   88.8229  157.8757 H        14        0    0.0000
    194 H         118.3729   89.7155  156.7421 H        14        0    0.0000
    195 C         116.9622   88.3913  155.7774 C.3      15        0    0.0000
    196 C         118.1265   88.0347  154.8422 C.3      15        0    0.0000
    197 H         116.6115   87.4661  156.2526 H        15        0    0.0000
    198 H         116.1115   88.7981  155.2180 H        15        0    0.0000
    199 H         119.0387   87.8118  155.4080 H        15        0    0.0000
    200 H         117.8604   87.1172  154.3018 H        15        0    0.0000
    201 C         115.4719   91.2743  153.4323 C.3      16        0    0.0000
    202 C         116.2006   90.2462  154.2964 C.3      16        0    0.0000
    203 C         117.7053   90.4473  154.0467 C.3      16        0    0.0000
    204 C         118.4304   89.1263  153.7583 C.3      16        0    0.0000
    205 C         117.7785   91.4653  152.8981 C.3      16        0    0.0000
    206 C         116.5180   92.3258  153.0533 C.3      16        0    0.0000
    207 C         116.6338   93.4269  154.1230 C.3      16        0    0.0000
    208 H         115.1103   90.7799  152.5216 H        16        0    0.0000
    209 H         114.5983   91.6942  153.9408 H        16        0    0.0000
    210 H         115.8597   89.2336  154.0543 H        16        0    0.0000
    211 H         115.9778   90.4161  155.3564 H        16        0    0.0000
    212 H         118.1383   90.9041  154.9478 H        16        0    0.0000
    213 H         119.5121   89.2916  153.6942 H        16        0    0.0000
    214 H         118.1103   88.7433  152.7818 H        16        0    0.0000
    215 H         118.7035   92.0494  152.9257 H        16        0    0.0000
    216 H         117.7441   90.9498  151.9295 H        16        0    0.0000
    217 H         116.2512   92.7826  152.0916 H        16        0    0.0000
    218 H         116.8482   93.0018  155.1094 H        16        0    0.0000
    219 H         115.6730   93.9489  154.2091 H        16        0    0.0000
    220 C         120.6123   94.2005  151.3565 C.3      17        0    0.0000
    221 C         119.6513   95.0419  152.2004 C.3      17        0    0.0000
    222 C         118.4059   94.1750  152.4277 C.3      17        0    0.0000
    223 C         117.7213   94.4785  153.7633 C.3      17        0    0.0000
    224 C         118.9469   92.7473  152.2973 C.3      17        0    0.0000
    225 C         119.9076   92.8603  151.1090 C.3      17        0    0.0000
    226 C         120.8963   91.6988  150.9752 C.3      17        0    0.0000
    227 H         120.8546   94.6974  150.4109 H        17        0    0.0000
    228 H         121.5537   94.0642  151.9023 H        17        0    0.0000
    229 H         119.3910   95.9787  151.6960 H        17        0    0.0000
    230 H         120.1343   95.3068  153.1486 H        17        0    0.0000
    231 H         117.7038   94.3608  151.6019 H        17        0    0.0000
    232 H         117.2477   95.4661  153.7111 H        17        0    0.0000
    233 H         118.4635   94.5261  154.5688 H        17        0    0.0000
    234 H         118.1480   92.0228  152.1100 H        17        0    0.0000
    235 H         119.4809   92.4449  153.2069 H        17        0    0.0000
    236 H         119.3155   92.9498  150.1865 H        17        0    0.0000
    237 H         120.3972   90.7474  151.1936 H        17        0    0.0000
    238 H         121.6941   91.8151  151.7184 H        17        0    0.0000
    239 C         123.0701   94.8556  148.5418 C.3      18        0    0.0000
    240 C         122.2379   94.1161  149.5922 C.3      18        0    0.0000
    241 C         121.4950   92.9894  148.8519 C.3      18        0    0.0000
    242 C         121.5419   91.6319  149.5639 C.3      18        0    0.0000
    243 C         122.1502   92.9452  147.4677 C.3      18        0    0.0000
    244 C         122.5394   94.3989  147.1785 C.3      18        0    0.0000
    245 C         121.3475   95.2383  146.6806 C.3      18        0    0.0000
    246 H         123.0393   95.9396  148.6871 H        18        0    0.0000
    247 H         124.1188   94.5475  148.6411 H        18        0    0.0000
    248 H         122.8882   93.7436  150.3914 H        18        0    0.0000
    249 H         121.5144   94.7975  150.0547 H        18        0    0.0000
    250 H         120.4465   93.2940  148.7235 H        18        0    0.0000
    251 H         120.9980   90.8899  148.9672 H        18        0    0.0000
    252 H         122.5760   91.2778  149.6454 H        18        0    0.0000
    253 H         121.4804   92.5256  146.7101 H        18        0    0.0000
    254 H         123.0540   92.3226  147.4926 H        18        0    0.0000
    255 H         123.3413   94.4231  146.4296 H        18        0    0.0000
    256 H         121.3479   96.2350  147.1356 H        18        0    0.0000
    257 H         120.4107   94.7525  146.9784 H        18        0    0.0000
    258 C         124.8933   96.4167  145.4899 C.3      19        0    0.0000
    259 C         123.4270   96.7876  145.7250 C.3      19        0    0.0000
    260 C         122.6131   96.0837  144.6243 C.3      19        0    0.0000
    261 C         121.3481   95.3799  145.1308 C.3      19        0    0.0000
    262 C         123.6046   95.1095  143.9801 C.3      19        0    0.0000
    263 C         124.9608   95.8157  144.0817 C.3      19        0    0.0000
    264 C         125.1556   96.8748  142.9802 C.3      19        0    0.0000
    265 H         125.5586   97.2728  145.6370 H        19        0    0.0000
    266 H         125.1860   95.6526  146.2215 H        19        0    0.0000
    267 H         123.1226   96.4911  146.7348 H        19        0    0.0000
    268 H         123.2915   97.8729  145.6514 H        19        0    0.0000
    269 H         122.3323   96.8330  143.8705 H        19        0    0.0000
    270 H         120.4662   95.9600  144.8340 H        19        0    0.0000
    271 H         121.2486   94.3913  144.6679 H        19        0    0.0000
    272 H         123.3285   94.8653  142.9491 H        19        0    0.0000
    273 H         123.6385   94.1693  144.5456 H        19        0    0.0000
    274 H         125.7673   95.0739  144.0219 H        19        0    0.0000
    275 H         124.1953   97.1793  142.5496 H        19        0    0.0000
    276 H         125.7491   96.4460  142.1639 H        19        0    0.0000
    277 C         125.9025   98.1318  143.5132 C.3      20        0    0.0000
    278 C         125.6847   99.3932  142.6652 C.3      20        0    0.0000
    279 H         125.5139   98.3277  144.5208 H        20        0    0.0000
    280 H         126.9694   97.9070  143.6270 H        20        0    0.0000
    281 H         125.5311   99.1422  141.6091 H        20        0    0.0000
    282 H         124.7631   99.8798  143.0093 H        20        0    0.0000
    283 C         128.2523  102.7424  140.3010 C.3      21        0    0.0000
    284 C         127.5171  101.4237  140.5350 C.3      21        0    0.0000
    285 C         126.6656  101.6123  141.8025 C.3      21        0    0.0000
    286 C         126.8322  100.4539  142.7948 C.3      21        0    0.0000
    287 C         127.0910  102.9797  142.3594 C.3      21        0    0.0000
    288 C         127.5085  103.7940  141.1283 C.3      21        0    0.0000
    289 C         126.3309  104.4057  140.3477 C.3      21        0    0.0000
    290 H         129.2793  102.6476  140.6765 H        21        0    0.0000
    291 H         128.3190  102.9935  139.2377 H        21        0    0.0000
    292 H         128.2318  100.5978  140.6204 H        21        0    0.0000
    293 H         126.8641  101.1977  139.6838 H        21        0    0.0000
    294 H         125.6120  101.6716  141.4950 H        21        0    0.0000
    295 H         126.8686  100.8346  143.8221 H        21        0    0.0000
    296 H         127.7897   99.9528  142.6088 H        21        0    0.0000
    297 H         126.2920  103.4540  142.9375 H        21        0    0.0000
    298 H         127.9563  102.8672  143.0256 H        21        0    0.0000
    299 H         128.2022  104.5927  141.4206 H        21        0    0.0000
    300 H         125.7555  105.0966  140.9732 H        21        0    0.0000
    301 H         125.6421  103.6064  140.0487 H        21        0    0.0000
    302 C         124.5647  106.5701  136.5264 C.3      22        0    0.0000
    303 C         124.6747  105.6616  137.7499 C.3      22        0    0.0000
    304 C         125.8128  106.2262  138.6176 C.3      22        0    0.0000
    305 C         126.8021  105.1403  139.0607 C.3      22        0    0.0000
    306 C         126.4431  107.3360  137.7622 C.3      22        0    0.0000
    307 C         125.2943  107.8648  136.8940 C.3      22        0    0.0000
    308 C         124.3650  108.8585  137.6145 C.3      22        0    0.0000
    309 H         125.0791  106.0927  135.6826 H        22        0    0.0000
    310 H         123.5250  106.7283  136.2234 H        22        0    0.0000
    311 H         124.8477  104.6247  137.4414 H        22        0    0.0000
    312 H         123.7371  105.6762  138.3182 H        22        0    0.0000
    313 H         125.3615  106.6844  139.5090 H        22        0    0.0000
    314 H         127.7951  105.5742  139.2261 H        22        0    0.0000
    315 H         126.9098  104.3998  138.2590 H        22        0    0.0000
    316 H         126.9101  108.1122  138.3762 H        22        0    0.0000
    317 H         127.2224  106.9188  137.1111 H        22        0    0.0000
    318 H         125.6923  108.3353  135.9858 H        22        0    0.0000
    319 H         123.9716  108.4326  138.5437 H        22        0    0.0000
    320 H         123.4989  109.0707  136.9760 H        22        0    0.0000
    321 C         128.0200  108.5784  136.3529 C.3      23        0    0.0000
    322 C         127.1917  108.7579  137.6275 C.3      23        0    0.0000
    323 C         126.5645  110.1614  137.5508 C.3      23        0    0.0000
    324 C         125.0770  110.2063  137.9217 C.3      23        0    0.0000
    325 C         126.8205  110.6160  136.1103 C.3      23        0    0.0000
    326 C         128.1607  109.9741  135.7356 C.3      23        0    0.0000
    327 C         129.3641  110.7616  136.2876 C.3      23        0    0.0000
    328 H         128.9762  108.0862  136.5544 H        23        0    0.0000
    329 H         127.4658  107.9327  135.6596 H        23        0    0.0000
    330 H         126.4436  107.9610  137.7037 H        23        0    0.0000
    331 H         127.8337  108.6852  138.5131 H        23        0    0.0000
    332 H         127.1247  110.8268  138.2233 H        23        0    0.0000
    333 H         124.9762  110.4169  138.9931 H        23        0    0.0000
    334 H         124.5740  111.0215  137.3890 H        23        0    0.0000
    335 H         126.8318  111.7071  136.0204 H        23        0    0.0000
    336 H         126.0345  110.2367  135.4446 H        23        0    0.0000
    337 H         128.2415  109.9017  134.6436 H        23        0    0.0000
    338 H         129.6723  110.3785  137.2667 H        23        0    0.0000
    339 H         129.0776  111.8102  136.4316 H        23        0    0.0000
    340 C         129.0859  111.3297  131.8713 C.3      24        0    0.0000
    341 C         128.9142  110.9998  133.3475 C.3      24        0    0.0000
    342 C         130.2949  111.3171  133.9313 C.3      24        0    0.0000
    343 C         130.5771  110.7205  135.3136 C.3      24        0    0.0000
    344 C         131.2998  110.9375  132.8260 C.3      24        0    0.0000
    345 C         130.4625  110.7400  131.5472 C.3      24        0    0.0000
    346 C         131.1058  111.2452  130.2521 C.3      24        0    0.0000
    347 H         128.2944  110.8870  131.2587 H        24        0    0.0000
    348 H         129.0589  112.4156  131.7292 H        24        0    0.0000
    349 H         128.1242  111.5988  133.8110 H        24        0    0.0000
    350 H         128.6513  109.9425  133.4622 H        24        0    0.0000
    351 H         130.3492  112.4102  134.0457 H        24        0    0.0000
    352 H         130.8986  109.6790  135.1951 H        24        0    0.0000
    353 H         131.4152  111.2588  135.7719 H        24        0    0.0000
    354 H         131.8502  110.0171  133.0489 H        24        0    0.0000
    355 H         132.0499  111.7292  132.7257 H        24        0    0.0000
    356 H         130.3239  109.6552  131.4247 H        24        0    0.0000
    357 H         131.6968  110.4362  129.8067 H        24        0    0.0000
    358 H         130.3163  111.4917  129.5322 H        24        0    0.0000
    359 C         131.6093  116.0189  129.1614 C.3      25        0    0.0000
    360 C         132.3057  114.9829  130.0305 C.3      25        0    0.0000
    361 C         131.3541  113.7864  129.9665 C.3      25        0    0.0000
    362 C         132.0223  112.4919  130.4363 C.3      25        0    0.0000
    363 C         130.8819  113.7723  128.5011 C.3      25        0    0.0000
    364 C         131.1032  115.2020  127.9657 C.3      25        0    0.0000
    365 C         129.9162  115.8130  127.2103 C.3      25        0    0.0000
    366 H         132.2910  116.8173  128.8518 H        25        0    0.0000
    367 H         130.7897  116.4780  129.7247 H        25        0    0.0000
    368 H         133.2867  114.7315  129.6092 H        25        0    0.0000
    369 H         132.4536  115.3398  131.0543 H        25        0    0.0000
    370 H         130.4852  114.0031  130.6049 H        25        0    0.0000
    371 H         132.9618  112.3327  129.8939 H        25        0    0.0000
    372 H         132.2832  112.5833  131.4974 H        25        0    0.0000
    373 H         131.4738  113.0707  127.9002 H        25        0    0.0000
    374 H         129.8390  113.4452  128.4342 H        25        0    0.0000
    375 H         131.9315  115.1419  127.2441 H        25        0    0.0000
    376 H         129.9613  116.9052  127.2953 H        25        0    0.0000
    377 H         128.9850  115.4983  127.6965 H        25        0    0.0000
    378 C         129.8632  118.9389  124.5021 C.3      26        0    0.0000
    379 C         129.3230  117.9489  125.5369 C.3      26        0    0.0000
    380 C         129.2850  116.5717  124.8505 C.3      26        0    0.0000
    381 C         129.8461  115.4281  125.7045 C.3      26        0    0.0000
    382 C         130.0726  116.7705  123.5515 C.3      26        0    0.0000
    383 C         129.7928  118.2225  123.1491 C.3      26        0    0.0000
    384 C         128.4310  118.3858  122.4477 C.3      26        0    0.0000
    385 H         129.3224  119.8898  124.5269 H        26        0    0.0000
    386 H         130.9121  119.1594  124.7382 H        26        0    0.0000
    387 H         129.9542  117.9609  126.4323 H        26        0    0.0000
    388 H         128.3124  118.2369  125.8492 H        26        0    0.0000
    389 H         128.2418  116.3468  124.5860 H        26        0    0.0000
    390 H         129.2017  114.5470  125.6002 H        26        0    0.0000
    391 H         130.8414  115.1376  125.3491 H        26        0    0.0000
    392 H         129.7792  116.0514  122.7799 H        26        0    0.0000
    393 H         131.1475  116.6419  123.7331 H        26        0    0.0000
    394 H         130.5905  118.5808  122.4860 H        26        0    0.0000
    395 H         127.6047  118.1544  123.1289 H        26        0    0.0000
    396 H         128.3641  117.6773  121.6135 H        26        0    0.0000
    397 C         128.2427  119.8222  121.8792 C.3      27        0    0.0000
    398 C         126.9038  120.0376  121.1593 C.3      27        0    0.0000
    399 H         128.2841  120.5092  122.7341 H        27        0    0.0000
    400 H         129.0895  120.0770  121.2311 H        27        0    0.0000
    401 H         126.7439  119.2831  120.3801 H        27        0    0.0000
    402 H         126.0979  119.9068  121.8929 H        27        0    0.0000
    403 C         130.1647  122.9304  119.8848 C.3      28        0    0.0000
    404 C         129.2887  121.7317  120.2158 C.3      28        0    0.0000
    405 C         127.9710  122.3672  120.6769 C.3      28        0    0.0000
    406 C         126.7320  121.4719  120.5493 C.3      28        0    0.0000
    407 C         127.8849  123.7242  119.9484 C.3      28        0    0.0000
    408 C         129.1993  123.8706  119.1601 C.3      28        0    0.0000
    409 C         129.7397  125.3002  119.0764 C.3      28        0    0.0000
    410 H         130.5462  123.3878  120.8057 H        28        0    0.0000
    411 H         131.0194  122.6531  119.2602 H        28        0    0.0000
    412 H         129.1588  121.1148  119.3201 H        28        0    0.0000
    413 H         129.7336  121.1031  120.9935 H        28        0    0.0000
    414 H         128.0807  122.5928  121.7482 H        28        0    0.0000
    415 H         125.8852  121.9638  121.0426 H        28        0    0.0000
    416 H         126.4661  121.3770  119.4898 H        28        0    0.0000
    417 H         127.7777  124.5228  120.6930 H        28        0    0.0000
    418 H         127.0219  123.7980  119.2783 H        28        0    0.0000
    419 H         129.0357  123.4804  118.1449 H        28        0    0.0000
    420 H         130.0736  125.6369  120.0650 H        28        0    0.0000
    421 H         130.6212  125.3167  118.4243 H        28        0    0.0000
    422 C         130.8060  127.9966  115.8573 C.3      29        0    0.0000
    423 C         130.0138  126.7937  116.3502 C.3      29        0    0.0000
    424 C         129.2651  127.3520  117.5648 C.3      29        0    0.0000
    425 C         128.6897  126.3032  118.5215 C.3      29        0    0.0000
    426 C         130.2279  128.3740  118.2004 C.3      29        0    0.0000
    427 C         131.3364  128.6120  117.1564 C.3      29        0    0.0000
    428 C         131.8384  130.0547  117.0435 C.3      29        0    0.0000
    429 H         131.6148  127.7041  115.1806 H        29        0    0.0000
    430 H         130.1420  128.6812  115.3181 H        29        0    0.0000
    431 H         129.3302  126.4130  115.5850 H        29        0    0.0000
    432 H         130.7007  125.9857  116.6250 H        29        0    0.0000
    433 H         128.4088  127.9238  117.1764 H        29        0    0.0000
    434 H         128.2097  126.8132  119.3651 H        29        0    0.0000
    435 H         127.9033  125.7400  118.0051 H        29        0    0.0000
    436 H         130.6749  128.0145  119.1335 H        29        0    0.0000
    437 H         129.6779  129.2869  118.4531 H        29        0    0.0000
    438 H         132.1995  128.0044  117.4680 H        29        0    0.0000
    439 H         131.8961  130.4933  118.0467 H        29        0    0.0000
    440 H         132.8592  130.0487  116.6432 H        29        0    0.0000
    441 C         132.6096  134.3263  115.6522 C.3      30        0    0.0000
    442 C         132.6638  132.8100  115.7596 C.3      30        0    0.0000
    443 C         131.2842  132.4566  116.3191 C.3      30        0    0.0000
    444 C         130.9543  130.9720  116.1462 C.3      30        0    0.0000
    445 C         130.3333  133.4176  115.5823 C.3      30        0    0.0000
    446 C         131.2038  134.5966  115.1011 C.3      30        0    0.0000
    447 C         130.6418  135.9931  115.3961 C.3      30        0    0.0000
    448 H         133.3898  134.7171  114.9916 H        30        0    0.0000
    449 H         132.7571  134.7690  116.6432 H        30        0    0.0000
    450 H         132.8152  132.3643  114.7690 H        30        0    0.0000
    451 H         133.4741  132.4744  116.4140 H        30        0    0.0000
    452 H         131.2703  132.7132  117.3885 H        30        0    0.0000
    453 H         129.8974  130.7902  116.3747 H        30        0    0.0000
    454 H         131.1029  130.6875  115.0977 H        30        0    0.0000
    455 H         129.8760  132.9327  114.7109 H        30        0    0.0000
    456 H         129.5134  133.7287  116.2383 H        30        0    0.0000
    457 H         131.2668  134.5134  114.0058 H        30        0    0.0000
    458 H         130.2175  136.0023  116.4071 H        30        0    0.0000
    459 H         129.8141  136.1965  114.7063 H        30        0    0.0000
    460 C         130.4220  140.7020  114.9667 C.3      31        0    0.0000
    461 C         130.3181  139.3224  115.5987 C.3      31        0    0.0000
    462 C         131.1342  138.4323  114.6528 C.3      31        0    0.0000
    463 C         131.6830  137.1431  115.2771 C.3      31        0    0.0000
    464 C         132.1888  139.3593  114.0140 C.3      31        0    0.0000
    465 C         131.8901  140.7745  114.5418 C.3      31        0    0.0000
    466 C         132.1449  141.8999  113.5360 C.3      31        0    0.0000
    467 H         129.7548  140.7734  114.0990 H        31        0    0.0000
    468 H         130.1551  141.4962  115.6705 H        31        0    0.0000
    469 H         130.7415  139.3495  116.6086 H        31        0    0.0000
    470 H         129.2792  138.9877  115.6803 H        31        0    0.0000
    471 H         130.4586  138.1206  113.8424 H        31        0    0.0000
    472 H         132.5294  136.7892  114.6764 H        31        0    0.0000
    473 H         132.0783  137.3681  116.2747 H        31        0    0.0000
    474 H         132.0894  139.3138  112.9223 H        31        0    0.0000
    475 H         133.2173  139.0675  114.2509 H        31        0    0.0000
    476 H         132.5009  140.9413  115.4410 H        31        0    0.0000
    477 H         131.9109  142.8712  113.9878 H        31        0    0.0000
    478 H         133.2105  141.9213  113.2785 H        31        0    0.0000
    479 C         131.3192  141.7306  112.2298 C.3      32        0    0.0000
    480 C         131.5374  142.8521  111.2041 C.3      32        0    0.0000
    481 H         131.6385  140.7849  111.7734 H        32        0    0.0000
    482 H         130.2570  141.6167  112.4763 H        32        0    0.0000
    483 H         131.8649  142.4508  110.2379 H        32        0    0.0000
    484 H         130.5726  143.3451  111.0282 H        32        0    0.0000
    485 C         134.2787  145.6117  108.9011 C.3      33        0    0.0000
    486 C         133.1652  144.6449  109.3012 C.3      33        0    0.0000
    487 C         132.6434  145.1154  110.6698 C.3      33        0    0.0000
    488 C         132.5344  143.9651  111.6794 C.3      33        0    0.0000
    489 C         133.6103  146.2315  111.0945 C.3      33        0    0.0000
    490 C         134.0973  146.8525  109.7791 C.3      33        0    0.0000
    491 C         133.1118  147.8558  109.1525 C.3      33        0    0.0000
    492 H         135.2482  145.1489  109.1257 H        33        0    0.0000
    493 H         134.2666  145.8325  107.8291 H        33        0    0.0000
    494 H         133.5409  143.6160  109.3187 H        33        0    0.0000
    495 H         132.3522  144.6784  108.5664 H        33        0    0.0000
    496 H         131.6470  145.5540  110.5180 H        33        0    0.0000
    497 H         132.2225  144.3461  112.6588 H        33        0    0.0000
    498 H         133.5223  143.5093  111.8170 H        33        0    0.0000
    499 H         133.1330  146.9563  111.7611 H        33        0    0.0000
    500 H         134.4692  145.8076  111.6309 H        33        0    0.0000
    501 H         135.0670  147.3441  109.9292 H        33        0    0.0000
    502 H         132.0776  147.6205  109.4257 H        33        0    0.0000
    503 H         133.1709  147.7850  108.0596 H        33        0    0.0000
    504 C         134.7390  148.3089  112.9495 C.3      34        0    0.0000
    505 C         133.7762  148.1478  111.7830 C.3      34        0    0.0000
    506 C         133.9975  149.4291  110.9765 C.3      34        0    0.0000
    507 C         133.4349  149.3220  109.5570 C.3      34        0    0.0000
    508 C         135.5194  149.6502  111.0510 C.3      34        0    0.0000
    509 C         136.0046  148.8761  112.2940 C.3      34        0    0.0000
    510 C         136.9357  149.6545  113.2322 C.3      34        0    0.0000
    511 H         134.9317  147.3572  113.4546 H        34        0    0.0000
    512 H         134.3105  148.9979  113.6853 H        34        0    0.0000
    513 H         134.0376  147.2597  111.1948 H        34        0    0.0000
    514 H         132.7399  148.0438  112.1186 H        34        0    0.0000
    515 H         133.5042  150.2580  111.5049 H        34        0    0.0000
    516 H         132.5280  149.9309  109.4627 H        34        0    0.0000
    517 H         134.1635  149.7307  108.8468 H        34        0    0.0000
    518 H         136.0226  149.2495  110.1623 H        34        0    0.0000
    519 H         135.7532  150.7192  111.0924 H        34        0    0.0000
    520 H         136.5857  148.0189  111.9226 H        34        0    0.0000
    521 H         137.4718  148.9455  113.8741 H        34        0    0.0000
    522 H         136.3286  150.2818  113.8958 H        34        0    0.0000
    523 C         137.9643  150.7815  108.7391 C.3      35        0    0.0000
    524 C         137.2251  150.6296  110.0711 C.3      35        0    0.0000
    525 C         138.2520  150.0878  111.0742 C.3      35        0    0.0000
    526 C         137.9725  150.5577  112.5044 C.3      35        0    0.0000
    527 C         139.5887  150.5636  110.4954 C.3      35        0    0.0000
    528 C         139.4070  150.3250  108.9928 C.3      35        0    0.0000
    529 C         140.4146  151.0592  108.1038 C.3      35        0    0.0000
    530 H         137.4957  150.1825  107.9508 H        35        0    0.0000
    531 H         137.9256  151.8291  108.4175 H        35        0    0.0000
    532 H         136.3701  149.9512  109.9792 H        35        0    0.0000
    533 H         136.8338  151.6048  110.3847 H        35        0    0.0000
    534 H         138.2235  148.9891  111.0339 H        35        0    0.0000
    535 H         137.5848  151.5831  112.4792 H        35        0    0.0000
    536 H         138.9026  150.5856  113.0841 H        35        0    0.0000
    537 H         140.4340  149.9980  110.9001 H        35        0    0.0000
    538 H         139.7520  151.6277  110.7074 H        35        0    0.0000
    539 H         139.4632  149.2437  108.8000 H        35        0    0.0000
    540 H         140.5519  152.0887  108.4547 H        35        0    0.0000
    541 H         140.0178  151.1233  107.0835 H        35        0    0.0000
    542 C         143.8212  151.0357  104.9167 C.3      36        0    0.0000
    543 C         142.4967  150.6999  105.5877 C.3      36        0    0.0000
    544 C         142.7883  150.9604  107.0691 C.3      36        0    0.0000
    545 C         141.7915  150.3420  108.0541 C.3      36        0    0.0000
    546 C         144.2611  150.5532  107.2705 C.3      36        0    0.0000
    547 C         144.8510  150.3980  105.8551 C.3      36        0    0.0000
    548 C         146.2913  150.8900  105.6824 C.3      36        0    0.0000
    549 H         143.8808  150.6281  103.9028 H        36        0    0.0000
    550 H         143.9388  152.1231  104.8537 H        36        0    0.0000
    551 H         141.6791  151.3238  105.2136 H        36        0    0.0000
    552 H         142.2401  149.6521  105.3962 H        36        0    0.0000
    553 H         142.7387  152.0498  107.2172 H        36        0    0.0000
    554 H         141.6315  149.2903  107.7885 H        36        0    0.0000
    555 H         142.2292  150.3499  109.0594 H        36        0    0.0000
    556 H         144.3712  149.6110  107.8183 H        36        0    0.0000
    557 H         144.7742  151.3173  107.8642 H        36        0    0.0000
    558 H         144.8603  149.3202  105.6332 H        36        0    0.0000
    559 H         146.9132  150.4633  106.4783 H        36        0    0.0000
    560 H         146.6886  150.5096  104.7339 H        36        0    0.0000
    561 C         143.9050  154.2416  107.7225 C.3      37        0    0.0000
    562 C         144.4050  152.8854  107.2189 C.3      37        0    0.0000
    563 C         145.0924  153.1444  105.8662 C.3      37        0    0.0000
    564 C         146.4452  152.4405  105.7037 C.3      37        0    0.0000
    565 C         145.2148  154.6694  105.7858 C.3      37        0    0.0000
    566 C         143.9797  155.1951  106.5251 C.3      37        0    0.0000
    567 C         142.7135  155.1660  105.6481 C.3      37        0    0.0000
    568 H         142.9081  154.1685  108.1674 H        37        0    0.0000
    569 H         144.5827  154.5979  108.5089 H        37        0    0.0000
    570 H         145.0766  152.4353  107.9583 H        37        0    0.0000
    571 H         143.5641  152.1953  107.0828 H        37        0    0.0000
    572 H         144.4148  152.8138  105.0661 H        37        0    0.0000
    573 H         146.9085  152.7571  104.7616 H        37        0    0.0000
    574 H         147.1289  152.7344  106.5084 H        37        0    0.0000
    575 H         145.2732  155.0222  104.7510 H        37        0    0.0000
    576 H         146.1221  155.0076  106.3030 H        37        0    0.0000
    577 H         144.1642  156.2217  106.8661 H        37        0    0.0000
    578 H         141.8413  155.5335  106.1999 H        37        0    0.0000
    579 H         142.4947  154.1311  105.3591 H        37        0    0.0000
    580 C         145.8948  158.1067  105.3033 C.3      38        0    0.0000
    581 C         144.3886  157.9623  105.1487 C.3      38        0    0.0000
    582 C         144.2372  156.7326  104.2443 C.3      38        0    0.0000
    583 C         142.8914  156.0041  104.3489 C.3      38        0    0.0000
    584 C         145.4831  155.8630  104.5108 C.3      38        0    0.0000
    585 C         146.3599  156.6614  105.4928 C.3      38        0    0.0000
    586 C         147.8673  156.5071  105.2761 C.3      38        0    0.0000
    587 H         146.3291  158.5467  104.3972 H        38        0    0.0000
    588 H         146.1603  158.7418  106.1539 H        38        0    0.0000
    589 H         143.9325  157.8100  106.1328 H        38        0    0.0000
    590 H         143.9361  158.8546  104.7046 H        38        0    0.0000
    591 H         144.3179  157.0860  103.2055 H        38        0    0.0000
    592 H         142.0822  156.7421  104.2940 H        38        0    0.0000
    593 H         142.7733  155.3435  103.4818 H        38        0    0.0000
    594 H         146.0066  155.6893  103.5624 H        38        0    0.0000
    595 H         145.2394  154.8782  104.9231 H        38        0    0.0000
    596 H         146.1026  156.3482  106.5151 H        38        0    0.0000
    597 H         148.3962  156.5759  106.2341 H        38        0    0.0000
    598 H         148.0751  155.5087  104.8731 H        38        0    0.0000
    599 C         152.2163  157.1413  104.2169 C.3      39        0    0.0000
    600 C         150.8786  156.9535  104.9187 C.3      39        0    0.0000
    601 C         149.8656  157.2783  103.8160 C.3      39        0    0.0000
    602 C         148.4409  157.5697  104.2971 C.3      39        0    0.0000
    603 C         150.5235  158.3901  102.9754 C.3      39        0    0.0000
    604 C         152.0016  158.4262  103.4104 C.3      39        0    0.0000
    605 C         153.0143  158.6751  102.2884 C.3      39        0    0.0000
    606 H         153.0419  157.2359  104.9292 H        39        0    0.0000
    607 H         152.4202  156.2793  103.5723 H        39        0    0.0000
    608 H         150.7572  155.9355  105.3017 H        39        0    0.0000
    609 H         150.8037  157.6462  105.7642 H        39        0    0.0000
    610 H         149.8016  156.3898  103.1699 H        39        0    0.0000
    611 H         148.4226  158.5489  104.7900 H        39        0    0.0000
    612 H         147.7768  157.6423  103.4276 H        39        0    0.0000
    613 H         150.0694  159.3733  103.1398 H        39        0    0.0000
    614 H         150.3984  158.1664  101.9105 H        39        0    0.0000
    615 H         152.1032  159.2657  104.1148 H        39        0    0.0000
    616 H         153.9628  158.1905  102.5483 H        39        0    0.0000
    617 H         152.6566  158.1951  101.3698 H        39        0    0.0000
    618 C         155.8733  160.9576   99.4490 C.3      40        0    0.0000
    619 C         155.0918  159.8623  100.1786 C.3      40        0    0.0000
    620 C         154.7389  160.4242  101.5675 C.3      40        0    0.0000
    621 C         153.2858  160.1809  101.9933 C.3      40        0    0.0000
    622 C         155.0775  161.9154  101.4734 C.3      40        0    0.0000
    623 C         156.2740  161.9799  100.5181 C.3      40        0    0.0000
    624 C         157.6030  161.6357  101.2170 C.3      40        0    0.0000
    625 H         156.7201  160.5495   98.8889 H        40        0    0.0000
    626 H         155.2088  161.4402   98.7209 H        40        0    0.0000
    627 H         154.2075  159.5813   99.5959 H        40        0    0.0000
    628 H         155.7077  158.9619  100.2870 H        40        0    0.0000
    629 H         155.4131  159.9671  102.3059 H        40        0    0.0000
    630 H         153.0720  160.7575  102.9012 H        40        0    0.0000
    631 H         152.5954  160.5378  101.2204 H        40        0    0.0000
    632 H         155.2932  162.3496  102.4550 H        40        0    0.0000
    633 H         154.2351  162.4720  101.0426 H        40        0    0.0000
    634 H         156.3412  162.9837  100.0798 H        40        0    0.0000
    635 H         158.4168  161.5323  100.4909 H        40        0    0.0000
    636 H         157.5064  160.6699  101.7271 H        40        0    0.0000
    637 C         156.6855  165.8872  103.6728 C.3      41        0    0.0000
    638 C         156.8299  164.3755  103.8646 C.3      41        0    0.0000
    639 C         156.8891  163.7569  102.4564 C.3      41        0    0.0000
    640 C         157.9921  162.7064  102.2773 C.3      41        0    0.0000
    641 C         157.0678  164.9559  101.5196 C.3      41        0    0.0000
    642 C         156.3054  166.0962  102.2029 C.3      41        0    0.0000
    643 C         154.7871  166.0200  101.9535 C.3      41        0    0.0000
    644 H         155.9718  166.3212  104.3795 H        41        0    0.0000
    645 H         157.6565  166.3618  103.8641 H        41        0    0.0000
    646 H         157.7210  164.1570  104.4633 H        41        0    0.0000
    647 H         155.9671  163.9761  104.4104 H        41        0    0.0000
    648 H         155.9141  163.2973  102.2402 H        41        0    0.0000
    649 H         158.9147  163.2006  101.9504 H        41        0    0.0000
    650 H         158.2148  162.2182  103.2331 H        41        0    0.0000
    651 H         156.7021  164.7452  100.5095 H        41        0    0.0000
    652 H         158.1296  165.2227  101.4389 H        41        0    0.0000
    653 H         156.6865  167.0607  101.8439 H        41        0    0.0000
    654 H         154.2243  166.2529  102.8642 H        41        0    0.0000
    655 H         154.5166  164.9974  101.6646 H        41        0    0.0000
    656 C         154.0894  170.5458   99.9806 C.3      42        0    0.0000
    657 C         153.4839  169.3838  100.7666 C.3      42        0    0.0000
    658 C         154.6475  168.4477  101.1363 C.3      42        0    0.0000
    659 C         154.3403  166.9796  100.8127 C.3      42        0    0.0000
    660 C         155.8602  169.0145  100.3822 C.3      42        0    0.0000
    661 C         155.5908  170.5210  100.2784 C.3      42        0    0.0000
    662 C         155.9325  171.3122  101.5542 C.3      42        0    0.0000
    663 H         153.9308  170.3700   98.9089 H        42        0    0.0000
    664 H         153.6136  171.5005  100.2254 H        42        0    0.0000
    665 H         152.7075  168.8862  100.1752 H        42        0    0.0000
    666 H         153.0048  169.7536  101.6808 H        42        0    0.0000
    667 H         154.8290  168.5458  102.2159 H        42        0    0.0000
    668 H         154.8245  166.6871   99.8737 H        42        0    0.0000
    669 H         153.2606  166.8602  100.6626 H        42        0    0.0000
    670 H         156.8030  168.7803  100.8861 H        42        0    0.0000
    671 H         155.9133  168.5889   99.3716 H        42        0    0.0000
    672 H         156.1428  170.9464   99.4305 H        42        0    0.0000
    673 H         156.6834  170.7898  102.1567 H        42        0    0.0000
    674 H         155.0342  171.3969  102.1777 H        42        0    0.0000
    675 C         156.4321  172.7494  101.2338 C.3      43        0    0.0000
    676 C         157.5134  173.2629  102.1953 C.3      43        0    0.0000
    677 H         156.8615  172.7178  100.2242 H        43        0    0.0000
    678 H         155.5786  173.4361  101.1900 H        43        0    0.0000
    679 H         157.1157  173.3966  103.2081 H        43        0    0.0000
    680 H         158.2980  172.4986  102.2647 H        43        0    0.0000
    681 C         156.1423  177.5825  102.8106 C.3      44        0    0.0000
    682 C         156.2360  176.1212  102.3941 C.3      44        0    0.0000
    683 C         157.7413  175.8429  102.4605 C.3      44        0    0.0000
    684 C         158.2106  174.5854  101.7225 C.3      44        0    0.0000
    685 C         158.4167  177.1587  102.0271 C.3      44        0    0.0000
    686 C         157.3078  178.2287  102.0545 C.3      44        0    0.0000
    687 C         157.7350  179.6097  102.5612 C.3      44        0    0.0000
    688 H         155.1792  178.0245  102.5371 H        44        0    0.0000
    689 H         156.2588  177.6658  103.8967 H        44        0    0.0000
    690 H         155.6672  175.4682  103.0631 H        44        0    0.0000
    691 H         155.8387  175.9992  101.3805 H        44        0    0.0000
    692 H         157.9916  175.6940  103.5218 H        44        0    0.0000
    693 H         158.0319  174.7131  100.6482 H        44        0    0.0000
    694 H         159.2941  174.4778  101.8510 H        44        0    0.0000
    695 H         158.8484  177.1047  101.0218 H        44        0    0.0000
    696 H         159.2449  177.3863  102.7069 H        44        0    0.0000
    697 H         156.9759  178.3665  101.0143 H        44        0    0.0000
    698 H         156.8398  180.2093  102.7641 H        44        0    0.0000
    699 H         158.2601  179.4942  103.5167 H        44        0    0.0000
    700 C         159.1033  183.9505  102.7595 C.3      45        0    0.0000
    701 C         158.6433  182.5101  102.9988 C.3      45        0    0.0000
    702 C         158.3859  181.9043  101.6129 C.3      45        0    0.0000
    703 C         158.6524  180.3969  101.5779 C.3      45        0    0.0000
    704 C         159.2911  182.7342  100.6964 C.3      45        0    0.0000
    705 C         159.1046  184.1551  101.2388 C.3      45        0    0.0000
    706 C         160.1720  185.1557  100.7871 C.3      45        0    0.0000
    707 H         158.4399  184.6695  103.2519 H        45        0    0.0000
    708 H         160.1049  184.0891  103.1839 H        45        0    0.0000
    709 H         157.7394  182.4760  103.6164 H        45        0    0.0000
    710 H         159.4256  181.9618  103.5374 H        45        0    0.0000
    711 H         157.3381  182.1007  101.3423 H        45        0    0.0000
    712 H         159.6979  180.2078  101.8493 H        45        0    0.0000
    713 H         158.5149  180.0098  100.5614 H        45        0    0.0000
    714 H         158.9929  182.6549   99.6462 H        45        0    0.0000
    715 H         160.3371  182.4146  100.7833 H        45        0    0.0000
    716 H         158.1095  184.5165  100.9409 H        45        0    0.0000
    717 H         160.6576  185.6125  101.6573 H        45        0    0.0000
    718 H         159.6926  185.9692  100.2294 H        45        0    0.0000
    719 C         164.0494  186.1982   97.9736 C.3      46        0    0.0000
    720 C         163.3580  184.9238   98.4336 C.3      46        0    0.0000
    721 C         162.4561  185.3990   99.5797 C.3      46        0    0.0000
    722 C         161.2486  184.5013   99.8785 C.3      46        0    0.0000
    723 C         162.1240  186.8723   99.2658 C.3      46        0    0.0000
    724 C         162.9188  187.2288   97.9962 C.3      46        0    0.0000
    725 C         163.4462  188.6651   97.9533 C.3      46        0    0.0000
    726 H         164.8479  186.4711   98.6743 H        46        0    0.0000
    727 H         164.4898  186.0888   96.9778 H        46        0    0.0000
    728 H         162.7826  184.4995   97.6037 H        46        0    0.0000
    729 H         164.0755  184.1666   98.7649 H        46        0    0.0000
    730 H         163.0714  185.4037  100.4918 H        46        0    0.0000
    731 H         160.7787  184.2104   98.9314 H        46        0    0.0000
    732 H         161.5983  183.5766  100.3526 H        46        0    0.0000
    733 H         162.4312  187.4960  100.1145 H        46        0    0.0000
    734 H         161.0538  187.0486   99.1141 H        46        0    0.0000
    735 H         162.2720  187.0496   97.1250 H        46        0    0.0000
    736 H         162.8696  189.3004   98.6362 H        46        0    0.0000
    737 H         164.4833  188.6810   98.3091 H        46        0    0.0000
    738 C         161.2054  192.3781   96.5694 C.3      47        0    0.0000
    739 C         161.5807  191.0153   97.1346 C.3      47        0    0.0000
    740 C         162.9361  190.7343   96.4775 C.3      47        0    0.0000
    741 C         163.3995  189.2751   96.5243 C.3      47        0    0.0000
    742 C         162.8418  191.3568   95.0708 C.3      47        0    0.0000
    743 C         161.5871  192.2516   95.0909 C.3      47        0    0.0000
    744 C         161.7068  193.5741   94.3273 C.3      47        0    0.0000
    745 H         160.1414  192.5968   96.7022 H        47        0    0.0000
    746 H         161.7796  193.1604   97.0778 H        47        0    0.0000
    747 H         161.6485  191.0303   98.2268 H        47        0    0.0000
    748 H         160.8239  190.2758   96.8508 H        47        0    0.0000
    749 H         163.6864  191.3183   97.0318 H        47        0    0.0000
    750 H         162.7308  188.6671   95.9035 H        47        0    0.0000
    751 H         164.3979  189.2016   96.0772 H        47        0    0.0000
    752 H         162.7437  190.6064   94.2789 H        47        0    0.0000
    753 H         163.7594  191.9149   94.8552 H        47        0    0.0000
    754 H         160.7837  191.6802   94.6018 H        47        0    0.0000
    755 H         162.3325  193.4199   93.4402 H        47        0    0.0000
    756 H         160.7150  193.8703   93.9657 H        47        0    0.0000
    757 C         160.0941  197.8205   95.0875 C.3      48        0    0.0000
    758 C         160.2563  196.3158   94.9359 C.3      48        0    0.0000
    759 C         161.7716  196.1320   94.7840 C.3      48        0    0.0000
    760 C         162.3046  194.7448   95.1642 C.3      48        0    0.0000
    761 C         162.4128  197.3164   95.5360 C.3      48        0    0.0000
    762 C         161.2467  198.1971   96.0208 C.3      48        0    0.0000
    763 C         161.5318  199.7009   96.0080 C.3      48        0    0.0000
    764 H         160.1965  198.3136   94.1131 H        48        0    0.0000
    765 H         159.1188  198.0874   95.5059 H        48        0    0.0000
    766 H         159.8666  195.8139   95.8281 H        48        0    0.0000
    767 H         159.7089  195.9312   94.0696 H        48        0    0.0000
    768 H         162.0069  196.2726   93.7185 H        48        0    0.0000
    769 H         163.3949  194.7384   95.0475 H        48        0    0.0000
    770 H         162.1014  194.5616   96.2259 H        48        0    0.0000
    771 H         163.0650  197.8661   94.8459 H        48        0    0.0000
    772 H         163.0368  197.0026   96.3794 H        48        0    0.0000
    773 H         160.9805  197.8830   97.0406 H        48        0    0.0000
    774 H         160.6313  200.2590   96.2906 H        48        0    0.0000
    775 H         162.2942  199.9315   96.7617 H        48        0    0.0000
    776 C         159.9548  202.7432   94.7110 C.3      49        0    0.0000
    777 C         161.0914  202.3905   93.7476 C.3      49        0    0.0000
    778 C         162.1901  201.7333   94.5900 C.3      49        0    0.0000
    779 C         162.0312  200.2015   94.6237 C.3      49        0    0.0000
    780 C         162.0075  202.4209   95.9491 C.3      49        0    0.0000
    781 C         160.4899  202.5028   96.1324 C.3      49        0    0.0000
    782 C         160.0829  203.5714   97.1533 C.3      49        0    0.0000
    783 H         159.6431  203.7816   94.5511 H        49        0    0.0000
    784 H         159.0804  202.1094   94.5238 H        49        0    0.0000
    785 H         161.4796  203.3166   93.3050 H        49        0    0.0000
    786 H         160.7462  201.7610   92.9211 H        49        0    0.0000
    787 H         163.1754  201.9799   94.1739 H        49        0    0.0000
    788 H         163.0019  199.7340   94.4187 H        49        0    0.0000
    789 H         161.3468  199.8558   93.8416 H        49        0    0.0000
    790 H         162.4405  203.4289   95.9073 H        49        0    0.0000
    791 H         162.4899  201.8913   96.7760 H        49        0    0.0000
    792 H         160.1290  201.5236   96.4771 H        49        0    0.0000
    793 H         159.0683  203.9307   96.9453 H        49        0    0.0000
    794 H         160.7513  204.4357   97.0618 H        49        0    0.0000
    795 C         160.1561  203.0357   98.6120 C.3      50        0    0.0000
    796 C         158.9426  203.4093   99.4755 C.3      50        0    0.0000
    797 H         160.2025  201.9411   98.5456 H        50        0    0.0000
    798 H         161.0931  203.3614   99.0787 H        50        0    0.0000
    799 H         159.1032  204.3587   99.9996 H        50        0    0.0000
    800 H         158.0839  203.5602   98.8088 H        50        0    0.0000
    801 C         158.8429  199.0152   98.6458 C.3      51        0    0.0000
    802 C         159.0127  200.5263   98.6796 C.3      51        0    0.0000
    803 C         158.1463  200.9580   99.8695 C.3      51        0    0.0000
    804 C         158.5275  202.3013  100.5044 C.3      51        0    0.0000
    805 C         158.1287  199.7524  100.8317 C.3      51        0    0.0000
    806 C         158.9100  198.6296  100.1250 C.3      51        0    0.0000
    807 C         158.3735  197.2187  100.3786 C.3      51        0    0.0000
    808 H         157.8705  198.7520   98.2119 H        51        0    0.0000
    809 H         159.6249  198.5282   98.0553 H        51        0    0.0000
    810 H         160.0697  200.7727   98.8273 H        51        0    0.0000
    811 H         158.6872  200.9950   97.7456 H        51        0    0.0000
    812 H         157.1189  201.0740   99.4934 H        51        0    0.0000
    813 H         157.6793  202.6698  101.0936 H        51        0    0.0000
    814 H         159.3535  202.1434  101.2080 H        51        0    0.0000
    815 H         157.0880  199.4571  101.0148 H        51        0    0.0000
    816 H         158.5711  199.9756  101.8083 H        51        0    0.0000
    817 H         159.9597  198.6863  100.4482 H        51        0    0.0000
    818 H         157.7781  196.8808   99.5221 H        51        0    0.0000
    819 H         159.2153  196.5221  100.4709 H        51        0    0.0000
    820 C         155.4479  199.6162  102.2632 C.3      52        0    0.0000
    821 C         156.8990  199.5930  101.7751 C.3      52        0    0.0000
    822 C         157.5843  198.4279  102.4974 C.3      52        0    0.0000
    823 C         157.5102  197.1318  101.6685 C.3      52        0    0.0000
    824 C         156.8177  198.3775  103.8251 C.3      52        0    0.0000
    825 C         155.3585  198.6194  103.4307 C.3      52        0    0.0000
    826 C         154.5071  199.0992  104.6116 C.3      52        0    0.0000
    827 H         155.1739  200.6348  102.5607 H        52        0    0.0000
    828 H         154.7659  199.3186  101.4586 H        52        0    0.0000
    829 H         157.3842  200.5340  102.0642 H        52        0    0.0000
    830 H         156.9623  199.5222  100.6845 H        52        0    0.0000
    831 H         158.6383  198.6729  102.6816 H        52        0    0.0000
    832 H         156.4693  196.9515  101.3740 H        52        0    0.0000
    833 H         157.8224  196.2640  102.2592 H        52        0    0.0000
    834 H         157.1730  199.1834  104.4807 H        52        0    0.0000
    835 H         156.9425  197.4355  104.3673 H        52        0    0.0000
    836 H         154.9416  197.6766  103.0495 H        52        0    0.0000
    837 H         153.4664  199.2418  104.2982 H        52        0    0.0000
    838 H         154.8734  200.0750  104.9517 H        52        0    0.0000
    839 C         154.5591  198.1025  105.8050 C.3      53        0    0.0000
    840 C         153.9427  198.6483  107.1010 C.3      53        0    0.0000
    841 H         155.6192  197.8909  105.9950 H        53        0    0.0000
    842 H         154.0972  197.1521  105.5130 H        53        0    0.0000
    843 H         154.5442  199.5056  107.4294 H        53        0    0.0000
    844 H         152.9269  199.0246  106.9319 H        53        0    0.0000
    845 C         154.0935  194.1755  106.7545 C.3      54        0    0.0000
    846 C         154.4133  195.6625  106.7398 C.3      54        0    0.0000
    847 C         153.5100  196.2182  107.8427 C.3      54        0    0.0000
    848 C         153.9352  197.6205  108.2851 C.3      54        0    0.0000
    849 C         153.5780  195.1466  108.9462 C.3      54        0    0.0000
    850 C         154.0128  193.8408  108.2493 C.3      54        0    0.0000
    851 C         153.1816  192.5999  108.5989 C.3      54        0    0.0000
    852 H         154.8629  193.5871  106.2448 H        54        0    0.0000
    853 H         153.1424  194.0006  106.2400 H        54        0    0.0000
    854 H         155.4720  195.8255  106.9757 H        54        0    0.0000
    855 H         154.2051  196.1167  105.7663 H        54        0    0.0000
    856 H         152.4796  196.2512  107.4597 H        54        0    0.0000
    857 H         153.2694  197.9857  109.0761 H        54        0    0.0000
    858 H         154.9417  197.5743  108.7175 H        54        0    0.0000
    859 H         154.3220  195.4089  109.7087 H        54        0    0.0000
    860 H         152.6150  195.0591  109.4600 H        54        0    0.0000
    861 H         155.0386  193.6315  108.5874 H        54        0    0.0000
    862 H         153.1956  191.9081  107.7484 H        54        0    0.0000
    863 H         152.1367  192.9004  108.7420 H        54        0    0.0000
    864 C         156.9245  189.9706  109.4322 C.3      55        0    0.0000
    865 C         156.0137  191.1284  109.0537 C.3      55        0    0.0000
    866 C         154.6441  190.6989  109.5947 C.3      55        0    0.0000
    867 C         153.6607  191.8432  109.8710 C.3      55        0    0.0000
    868 C         154.9405  189.7765  110.7951 C.3      55        0    0.0000
    869 C         156.4720  189.6290  110.8533 C.3      55        0    0.0000
    870 C         156.9658  188.2509  111.3007 C.3      55        0    0.0000
    871 H         156.7660  189.1247  108.7521 H        55        0    0.0000
    872 H         157.9816  190.2503  109.3905 H        55        0    0.0000
    873 H         156.3749  192.0480  109.5266 H        55        0    0.0000
    874 H         155.9922  191.2946  107.9720 H        55        0    0.0000
    875 H         154.1771  190.0690  108.8230 H        55        0    0.0000
    876 H         152.7832  191.4404  110.3909 H        55        0    0.0000
    877 H         154.1290  192.5608  110.5551 H        55        0    0.0000
    878 H         154.4545  188.8071  110.6288 H        55        0    0.0000
    879 H         154.5535  190.1665  111.7424 H        55        0    0.0000
    880 H         156.8651  190.3981  111.5340 H        55        0    0.0000
    881 H         157.1833  187.6251  110.4270 H        55        0    0.0000
    882 H         157.9086  188.3643  111.8489 H        55        0    0.0000
    883 C         155.9428  187.5182  112.2135 C.3      56        0    0.0000
    884 C         156.4317  187.3059  113.6534 C.3      56        0    0.0000
    885 H         155.7672  186.5322  111.7647 H        56        0    0.0000
    886 H         154.9831  188.0478  112.1921 H        56        0    0.0000
    887 H         157.0230  186.3816  113.6793 H        56        0    0.0000
    888 H         157.1003  188.1147  113.9710 H        56        0    0.0000
    889 C         156.3944  187.2869  118.2350 C.3      57        0    0.0000
    890 C         156.8144  187.3127  116.7633 C.3      57        0    0.0000
    891 C         155.7742  186.4789  115.9940 C.3      57        0    0.0000
    892 C         155.2765  187.1337  114.6996 C.3      57        0    0.0000
    893 C         154.6450  186.2507  117.0040 C.3      57        0    0.0000
    894 C         155.3518  186.1707  118.3614 C.3      57        0    0.0000
    895 C         155.9756  184.7858  118.6182 C.3      57        0    0.0000
    896 H         157.2535  187.1662  118.9017 H        57        0    0.0000
    897 H         155.9254  188.2471  118.4854 H        57        0    0.0000
    898 H         156.8763  188.3477  116.4094 H        57        0    0.0000
    899 H         157.8097  186.8692  116.6429 H        57        0    0.0000
    900 H         156.2218  185.5032  115.7563 H        57        0    0.0000
    901 H         154.4938  186.5084  114.2539 H        57        0    0.0000
    902 H         154.8216  188.1077  114.9136 H        57        0    0.0000
    903 H         154.0641  185.3518  116.7735 H        57        0    0.0000
    904 H         153.9526  187.1025  117.0017 H        57        0    0.0000
    905 H         154.6384  186.4041  119.1620 H        57        0    0.0000
    906 H         157.0198  184.7547  118.2879 H        57        0    0.0000
    907 H         155.4348  184.0296  118.0368 H        57        0    0.0000
    908 C         155.8988  184.3875  120.1207 C.3      58        0    0.0000
    909 C         156.0422  182.8800  120.3745 C.3      58        0    0.0000
    910 H         156.7281  184.8983  120.6266 H        58        0    0.0000
    911 H         154.9742  184.7798  120.5601 H        58        0    0.0000
    912 H         155.2658  182.3115  119.8492 H        58        0    0.0000
    913 H         157.0045  182.5548  119.9590 H        58        0    0.0000
    914 C         158.5841  181.0284  120.4018 C.3      59        0    0.0000
    915 C         157.2185  180.4944  120.8425 C.3      59        0    0.0000
    916 C         156.8711  181.2110  122.1520 C.3      59        0    0.0000
    917 C         156.0487  182.4874  121.8925 C.3      59        0    0.0000
    918 C         158.2575  181.4610  122.7590 C.3      59        0    0.0000
    919 C         159.1252  181.8732  121.5672 C.3      59        0    0.0000
    920 C         160.6216  181.6888  121.8439 C.3      59        0    0.0000
    921 H         159.2448  180.1912  120.1496 H        59        0    0.0000
    922 H         158.4843  181.6456  119.5016 H        59        0    0.0000
    923 H         157.3045  179.4168  121.0312 H        59        0    0.0000
    924 H         156.4588  180.6235  120.0649 H        59        0    0.0000
    925 H         156.2927  180.5406  122.8006 H        59        0    0.0000
    926 H         156.4842  183.3182  122.4607 H        59        0    0.0000
    927 H         155.0180  182.3744  122.2451 H        59        0    0.0000
    928 H         158.6346  180.5289  123.1997 H        59        0    0.0000
    929 H         158.2601  182.2201  123.5469 H        59        0    0.0000
    930 H         158.9307  182.9322  121.3465 H        59        0    0.0000
    931 H         161.2046  182.4484  121.3102 H        59        0    0.0000
    932 H         160.9450  180.7133  121.4619 H        59        0    0.0000
    933 C         162.6393  178.5464  124.4320 C.3      60        0    0.0000
    934 C         162.1762  179.4824  123.3261 C.3      60        0    0.0000
    935 C         161.1658  180.3970  124.0302 C.3      60        0    0.0000
    936 C         160.9419  181.7608  123.3646 C.3      60        0    0.0000
    937 C         161.6064  180.4458  125.5077 C.3      60        0    0.0000
    938 C         162.8035  179.4852  125.6291 C.3      60        0    0.0000
    939 C         162.8806  178.7227  126.9541 C.3      60        0    0.0000
    940 H         161.8758  177.7839  124.6287 H        60        0    0.0000
    941 H         163.5731  178.0378  124.1739 H        60        0    0.0000
    942 H         163.0344  180.0391  122.9344 H        60        0    0.0000
    943 H         161.7224  178.9370  122.4927 H        60        0    0.0000
    944 H         160.1952  179.8793  124.0093 H        60        0    0.0000
    945 H         160.1167  182.2735  123.8731 H        60        0    0.0000
    946 H         161.8342  182.3811  123.5101 H        60        0    0.0000
    947 H         160.7709  180.1207  126.1401 H        60        0    0.0000
    948 H         161.8828  181.4518  125.8405 H        60        0    0.0000
    949 H         163.7259  180.0668  125.4866 H        60        0    0.0000
    950 H         162.4356  177.7267  126.8438 H        60        0    0.0000
    951 H         163.9324  178.5692  127.2231 H        60        0    0.0000
    952 C         163.6588  177.1121  130.6545 C.3      61        0    0.0000
    953 C         162.5085  177.5406  129.7395 C.3      61        0    0.0000
    954 C         162.6931  179.0433  129.4907 C.3      61        0    0.0000
    955 C         162.1728  179.4739  128.1165 C.3      61        0    0.0000
    956 C         164.1976  179.2482  129.6967 C.3      61        0    0.0000
    957 C         164.4903  178.3738  130.9205 C.3      61        0    0.0000
    958 C         165.9726  178.0584  131.1395 C.3      61        0    0.0000
    959 H         163.2866  176.6824  131.5908 H        61        0    0.0000
    960 H         164.2532  176.3375  130.1553 H        61        0    0.0000
    961 H         161.5350  177.3350  130.1974 H        61        0    0.0000
    962 H         162.5544  176.9703  128.8040 H        61        0    0.0000
    963 H         162.1536  179.5897  130.2781 H        61        0    0.0000
    964 H         162.3381  180.5503  127.9879 H        61        0    0.0000
    965 H         161.0907  179.3104  128.0513 H        61        0    0.0000
    966 H         164.4465  180.2990  129.8759 H        61        0    0.0000
    967 H         164.7644  178.9034  128.8228 H        61        0    0.0000
    968 H         164.0826  178.8712  131.8126 H        61        0    0.0000
    969 H         166.2562  178.2658  132.1779 H        61        0    0.0000
    970 H         166.5801  178.7179  130.5082 H        61        0    0.0000
    971 C         166.3208  176.5848  130.7929 C.3      62        0    0.0000
    972 C         167.5657  176.0512  131.5161 C.3      62        0    0.0000
    973 H         165.4612  175.9755  131.1003 H        62        0    0.0000
    974 H         166.4120  176.4724  129.7062 H        62        0    0.0000
    975 H         168.4738  176.2231  130.9265 H        62        0    0.0000
    976 H         167.6858  176.6164  132.4492 H        62        0    0.0000
    977 C         170.9175  174.3801  133.1687 C.3      63        0    0.0000
    978 C         169.6181  175.1833  133.1346 C.3      63        0    0.0000
    979 C         168.4724  174.1636  133.0147 C.3      63        0    0.0000
    980 C         167.4720  174.5371  131.9129 C.3      63        0    0.0000
    981 C         169.1720  172.8136  132.7937 C.3      63        0    0.0000
    982 C         170.5181  172.9441  133.5175 C.3      63        0    0.0000
    983 C         170.4393  172.7275  135.0398 C.3      63        0    0.0000
    984 H         171.3710  174.3964  132.1693 H        63        0    0.0000
    985 H         171.6481  174.8085  133.8620 H        63        0    0.0000
    986 H         169.6360  175.9037  132.3094 H        63        0    0.0000
    987 H         169.5034  175.7579  134.0613 H        63        0    0.0000
    988 H         167.9469  174.1321  133.9796 H        63        0    0.0000
    989 H         166.4497  174.3015  132.2307 H        63        0    0.0000
    990 H         167.6735  173.9321  131.0207 H        63        0    0.0000
    991 H         168.5691  171.9749  133.1554 H        63        0    0.0000
    992 H         169.3542  172.6497  131.7236 H        63        0    0.0000
    993 H         171.2468  172.2436  133.0900 H        63        0    0.0000
    994 H         170.3982  171.6615  135.2879 H        63        0    0.0000
    995 H         169.5123  173.1736  135.4202 H        63        0    0.0000
    996 C         172.0763  172.1152  139.3087 C.3      64        0    0.0000
    997 C         171.5076  171.9670  137.8951 C.3      64        0    0.0000
    998 C         171.4445  173.3823  137.3058 C.3      64        0    0.0000
    999 C         171.6324  173.3889  135.7861 C.3      64        0    0.0000
   1000 C         172.5284  174.1332  138.0864 C.3      64        0    0.0000
   1001 C         172.3332  173.6138  139.5147 C.3      64        0    0.0000
   1002 C         173.5112  173.8783  140.4564 C.3      64        0    0.0000
   1003 H         171.3817  171.7286  140.0621 H        64        0    0.0000
   1004 H         173.0026  171.5341  139.3923 H        64        0    0.0000
   1005 H         170.5155  171.5030  137.9094 H        64        0    0.0000
   1006 H         172.1626  171.3152  137.3046 H        64        0    0.0000
   1007 H         170.4660  173.8156  137.5591 H        64        0    0.0000
   1008 H         172.5486  172.8424  135.5323 H        64        0    0.0000
   1009 H         171.7658  174.4150  135.4239 H        64        0    0.0000
   1010 H         172.3992  175.2184  138.0246 H        64        0    0.0000
   1011 H         173.5283  173.8826  137.7104 H        64        0    0.0000
   1012 H         171.4197  174.0640  139.9299 H        64        0    0.0000
   1013 H         173.4593  174.8991  140.8529 H        64        0    0.0000
   1014 H         174.4489  173.8056  139.8924 H        64        0    0.0000
   1015 C         173.5641  172.8679  141.6350 C.3      65        0    0.0000
   1016 C         174.9858  172.4410  142.0275 C.3      65        0    0.0000
   1017 H         173.0175  171.9733  141.3102 H        65        0    0.0000
   1018 H         173.0180  173.2740  142.4946 H        65        0    0.0000
   1019 H         175.5703  172.3167  141.1069 H        65        0    0.0000
   1020 H         175.4879  173.2186  142.6149 H        65        0    0.0000
   1021 C         178.3418  169.7643  143.9038 C.3      66        0    0.0000
   1022 C         177.5803  170.9414  143.2895 C.3      66        0    0.0000
   1023 C         176.3762  170.3436  142.5399 C.3      66        0    0.0000
   1024 C         175.0520  171.0745  142.7936 C.3      66        0    0.0000
   1025 C         176.3316  168.8810  142.9938 C.3      66        0    0.0000
   1026 C         177.7990  168.5032  143.2228 C.3      66        0    0.0000
   1027 C         178.5294  168.1617  141.9102 C.3      66        0    0.0000
   1028 H         179.4250  169.8858  143.8090 H        66        0    0.0000
   1029 H         178.1161  169.7190  144.9770 H        66        0    0.0000
   1030 H         177.2857  171.6474  144.0737 H        66        0    0.0000
   1031 H         178.2223  171.4864  142.5876 H        66        0    0.0000
   1032 H         176.5974  170.3601  141.4631 H        66        0    0.0000
   1033 H         174.2196  170.4456  142.4560 H        66        0    0.0000
   1034 H         174.9074  171.2435  143.8669 H        66        0    0.0000
   1035 H         175.8368  168.2383  142.2584 H        66        0    0.0000
   1036 H         175.7789  168.7907  143.9380 H        66        0    0.0000
   1037 H         177.8560  167.6463  143.9061 H        66        0    0.0000
   1038 H         179.6120  168.0955  142.0655 H        66        0    0.0000
   1039 H         178.3607  168.9628  141.1808 H        66        0    0.0000
   1040 C         175.7939  166.8002  144.2149 C.3      67        0    0.0000
   1041 C         176.0577  167.3922  142.8312 C.3      67        0    0.0000
   1042 C         176.7674  166.3001  142.0123 C.3      67        0    0.0000
   1043 C         178.0154  166.8288  141.2930 C.3      67        0    0.0000
   1044 C         177.0551  165.1786  143.0225 C.3      67        0    0.0000
   1045 C         175.9290  165.2833  144.0588 C.3      67        0    0.0000
   1046 C         174.6039  164.6349  143.6180 C.3      67        0    0.0000
   1047 H         176.5640  167.1619  144.9082 H        67        0    0.0000
   1048 H         174.8248  167.1110  144.6176 H        67        0    0.0000
   1049 H         176.6462  168.3123  142.9154 H        67        0    0.0000
   1050 H         175.1111  167.6585  142.3463 H        67        0    0.0000
   1051 H         176.0556  165.9237  141.2641 H        67        0    0.0000
   1052 H         177.8082  166.9718  140.2262 H        67        0    0.0000
   1053 H         178.8166  166.0832  141.3627 H        67        0    0.0000
   1054 H         177.1069  164.1968  142.5419 H        67        0    0.0000
   1055 H         178.0181  165.3521  143.5202 H        67        0    0.0000
   1056 H         176.2488  164.8408  145.0109 H        67        0    0.0000
   1057 H         174.5207  164.6034  142.5263 H        67        0    0.0000
   1058 H         173.7664  165.2445  143.9784 H        67        0    0.0000
   1059 C         174.4362  163.2000  144.1932 C.3      68        0    0.0000
   1060 C         173.0656  162.9414  144.8350 C.3      68        0    0.0000
   1061 H         174.5546  162.5055  143.3516 H        68        0    0.0000
   1062 H         175.2516  162.9852  144.8938 H        68        0    0.0000
   1063 H         172.4357  163.8382  144.8052 H        68        0    0.0000
   1064 H         172.5503  162.1761  144.2405 H        68        0    0.0000
   1065 C         176.3700  162.0766  145.7971 C.3      69        0    0.0000
   1066 C         175.1754  161.2603  145.2966 C.3      69        0    0.0000
   1067 C         174.1508  161.2414  146.4363 C.3      69        0    0.0000
   1068 C         173.1422  162.3980  146.3038 C.3      69        0    0.0000
   1069 C         175.0492  161.3211  147.6772 C.3      69        0    0.0000
   1070 C         176.1355  162.3299  147.2956 C.3      69        0    0.0000
   1071 C         177.3896  162.1938  148.1665 C.3      69        0    0.0000
   1072 H         177.2992  161.5280  145.6057 H        69        0    0.0000
   1073 H         176.4388  163.0288  145.2587 H        69        0    0.0000
   1074 H         175.5087  160.2348  145.0924 H        69        0    0.0000
   1075 H         174.7719  161.6582  144.3599 H        69        0    0.0000
   1076 H         173.6041  160.2897  146.4292 H        69        0    0.0000
   1077 H         173.4501  163.2215  146.9594 H        69        0    0.0000
   1078 H         172.1431  162.0936  146.6332 H        69        0    0.0000
   1079 H         175.4949  160.3358  147.8669 H        69        0    0.0000
   1080 H         174.5166  161.6196  148.5850 H        69        0    0.0000
   1081 H         175.7256  163.3427  147.4154 H        69        0    0.0000
   1082 H         177.5625  163.1164  148.7327 H        69        0    0.0000
   1083 H         178.2652  162.0466  147.5233 H        69        0    0.0000
   1084 C         173.6395  159.9646  149.4750 C.3      70        0    0.0000
   1085 C         174.6945  161.0271  149.2003 C.3      70        0    0.0000
   1086 C         175.9760  160.2027  149.0397 C.3      70        0    0.0000
   1087 C         177.2839  160.9924  149.1492 C.3      70        0    0.0000
   1088 C         175.8267  159.0249  150.0225 C.3      70        0    0.0000
   1089 C         174.3479  159.0254  150.4567 C.3      70        0    0.0000
   1090 C         173.7080  157.6437  150.6227 C.3      70        0    0.0000
   1091 H         172.7280  160.3942  149.9019 H        70        0    0.0000
   1092 H         173.3720  159.4586  148.5408 H        70        0    0.0000
   1093 H         174.4646  161.6090  148.3024 H        70        0    0.0000
   1094 H         174.7528  161.7185  150.0481 H        70        0    0.0000
   1095 H         175.9542  159.7734  148.0266 H        70        0    0.0000
   1096 H         177.3920  161.3656  150.1746 H        70        0    0.0000
   1097 H         178.1275  160.3154  148.9698 H        70        0    0.0000
   1098 H         176.4674  159.1234  150.9055 H        70        0    0.0000
   1099 H         176.1247  158.0946  149.5270 H        70        0    0.0000
   1100 H         174.3089  159.5085  151.4447 H        70        0    0.0000
   1101 H         172.7684  157.7487  151.1780 H        70        0    0.0000
   1102 H         173.4470  157.2484  149.6339 H        70        0    0.0000
   1103 C         174.6089  156.6046  151.3553 C.3      71        0    0.0000
   1104 C         175.0124  155.4055  150.4853 C.3      71        0    0.0000
   1105 H         174.0289  156.2272  152.2072 H        71        0    0.0000
   1106 H         175.4885  157.1080  151.7734 H        71        0    0.0000
   1107 H         174.0970  154.9560  150.0795 H        71        0    0.0000
   1108 H         175.6143  155.7213  149.6252 H        71        0    0.0000
   1109 C         175.7634  154.2738  151.2689 C.3      72        0    0.0000
   1110 C         175.2615  152.8576  150.9531 C.3      72        0    0.0000
   1111 H         175.5967  154.4639  152.3370 H        72        0    0.0000
   1112 H         176.8430  154.3614  151.0998 H        72        0    0.0000
   1113 H         174.2162  152.9317  150.6269 H        72        0    0.0000
   1114 H         175.8190  152.4133  150.1202 H        72        0    0.0000
   1115 C         177.5667  154.0143  154.2997 C.3      73        0    0.0000
   1116 C         177.0342  153.5754  152.9332 C.3      73        0    0.0000
   1117 C         176.4541  152.1685  153.1286 C.3      73        0    0.0000
   1118 C         175.2840  151.8848  152.1827 C.3      73        0    0.0000
   1119 C         176.0919  152.1449  154.6173 C.3      73        0    0.0000
   1120 C         177.2862  152.8543  155.2641 C.3      73        0    0.0000
   1121 C         177.0432  153.3348  156.6974 C.3      73        0    0.0000
   1122 H         178.6377  154.2403  154.2582 H        73        0    0.0000
   1123 H         177.0533  154.9308  154.6143 H        73        0    0.0000
   1124 H         177.8268  153.5718  152.1772 H        73        0    0.0000
   1125 H         176.2669  154.2826  152.5961 H        73        0    0.0000
   1126 H         177.2578  151.4389  152.9516 H        73        0    0.0000
   1127 H         174.3406  151.9939  152.7310 H        73        0    0.0000
   1128 H         175.3249  150.8485  151.8273 H        73        0    0.0000
   1129 H         175.9704  151.1238  154.9926 H        73        0    0.0000
   1130 H         175.1605  152.6943  154.8038 H        73        0    0.0000
   1131 H         178.1508  152.1750  155.2435 H        73        0    0.0000
   1132 H         176.0368  153.7593  156.7908 H        73        0    0.0000
   1133 H         177.7491  154.1400  156.9338 H        73        0    0.0000
   1134 C         180.1930  150.0694  156.6934 C.3      74        0    0.0000
   1135 C         179.0591  151.0222  156.3414 C.3      74        0    0.0000
   1136 C         178.6023  151.5310  157.7126 C.3      74        0    0.0000
   1137 C         177.2236  152.1978  157.7404 C.3      74        0    0.0000
   1138 C         178.7818  150.3359  158.6692 C.3      74        0    0.0000
   1139 C         179.6376  149.3090  157.9021 C.3      74        0    0.0000
   1140 C         180.6766  148.5578  158.7403 C.3      74        0    0.0000
   1141 H         180.4369  149.3996  155.8629 H        74        0    0.0000
   1142 H         181.0928  150.6417  156.9444 H        74        0    0.0000
   1143 H         179.3959  151.8362  155.6920 H        74        0    0.0000
   1144 H         178.2658  150.4763  155.8191 H        74        0    0.0000
   1145 H         179.3267  152.2979  158.0257 H        74        0    0.0000
   1146 H         176.4540  151.4362  157.5678 H        74        0    0.0000
   1147 H         177.0433  152.6066  158.7417 H        74        0    0.0000
   1148 H         177.8308  149.8761  158.9591 H        74        0    0.0000
   1149 H         179.2551  150.6770  159.5962 H        74        0    0.0000
   1150 H         178.9442  148.5497  157.5102 H        74        0    0.0000
   1151 H         180.9208  147.6113  158.2435 H        74        0    0.0000
   1152 H         181.6024  149.1443  158.7734 H        74        0    0.0000
   1153 C         180.2238  148.2546  160.2001 C.3      75        0    0.0000
   1154 C         181.3491  147.7377  161.1078 C.3      75        0    0.0000
   1155 H         179.8545  149.1991  160.6199 H        75        0    0.0000
   1156 H         179.3728  147.5636  160.1870 H        75        0    0.0000
   1157 H         181.4106  146.6434  161.0831 H        75        0    0.0000
   1158 H         182.3026  148.1145  160.7161 H        75        0    0.0000
   1159 C         184.2257  146.1250  163.0021 C.3      76        0    0.0000
   1160 C         183.6941  147.5092  162.6337 C.3      76        0    0.0000
   1161 C         182.4100  147.7211  163.4542 C.3      76        0    0.0000
   1162 C         181.2449  148.2276  162.5937 C.3      76        0    0.0000
   1163 C         182.1477  146.3651  164.1273 C.3      76        0    0.0000
   1164 C         183.5373  145.7430  164.3150 C.3      76        0    0.0000
   1165 C         184.3064  146.2747  165.5382 C.3      76        0    0.0000
   1166 H         183.9327  145.4127  162.2201 H        76        0    0.0000
   1167 H         185.3184  146.1065  163.0630 H        76        0    0.0000
   1168 H         183.5262  147.5789  161.5534 H        76        0    0.0000
   1169 H         184.4291  148.2794  162.8957 H        76        0    0.0000
   1170 H         182.6275  148.4637  164.2349 H        76        0    0.0000
   1171 H         181.2007  149.3226  162.6189 H        76        0    0.0000
   1172 H         180.2997  147.8628  163.0132 H        76        0    0.0000
   1173 H         181.5949  146.4728  165.0656 H        76        0    0.0000
   1174 H         181.5523  145.7209  163.4672 H        76        0    0.0000
   1175 H         183.4563  144.6508  164.3857 H        76        0    0.0000
   1176 H         184.5747  147.3290  165.4115 H        76        0    0.0000
   1177 H         185.2482  145.7220  165.6404 H        76        0    0.0000
   1178 C         183.6003  147.1994  170.3991 C.3      77        0    0.0000
   1179 C         183.1284  147.5182  168.9783 C.3      77        0    0.0000
   1180 C         184.1408  146.8640  168.0211 C.3      77        0    0.0000
   1181 C         183.5005  146.0987  166.8563 C.3      77        0    0.0000
   1182 C         184.9859  145.9566  168.9209 C.3      77        0    0.0000
   1183 C         185.0392  146.6889  170.2660 C.3      77        0    0.0000
   1184 C         186.0861  147.8189  170.2787 C.3      77        0    0.0000
   1185 H         183.4973  148.0610  171.0655 H        77        0    0.0000
   1186 H         182.9711  146.3989  170.8089 H        77        0    0.0000
   1187 H         182.1063  147.1522  168.8318 H        77        0    0.0000
   1188 H         183.1105  148.6024  168.8166 H        77        0    0.0000
   1189 H         184.7947  147.6514  167.6198 H        77        0    0.0000
   1190 H         183.4625  145.0305  167.1009 H        77        0    0.0000
   1191 H         182.4658  146.4271  166.7052 H        77        0    0.0000
   1192 H         185.9787  145.7702  168.4986 H        77        0    0.0000
   1193 H         184.4939  144.9843  169.0529 H        77        0    0.0000
   1194 H         185.2652  145.9726  171.0661 H        77        0    0.0000
   1195 H         185.6382  148.7766  169.9915 H        77        0    0.0000
   1196 H         186.8678  147.5990  169.5420 H        77        0    0.0000
   1197 C         184.9659  146.3150  174.5723 C.3      78        0    0.0000
   1198 C         185.3507  146.3256  173.1008 C.3      78        0    0.0000
   1199 C         185.8118  147.7688  172.8612 C.3      78        0    0.0000
   1200 C         186.7621  147.9642  171.6730 C.3      78        0    0.0000
   1201 C         186.3410  148.2688  174.2212 C.3      78        0    0.0000
   1202 C         186.0845  147.1298  175.2249 C.3      78        0    0.0000
   1203 C         185.7140  147.5918  176.6364 C.3      78        0    0.0000
   1204 H         183.9909  146.7972  174.7133 H        78        0    0.0000
   1205 H         184.9066  145.2984  174.9729 H        78        0    0.0000
   1206 H         186.1537  145.6010  172.9272 H        78        0    0.0000
   1207 H         184.5090  146.0530  172.4565 H        78        0    0.0000
   1208 H         184.9116  148.3607  172.6382 H        78        0    0.0000
   1209 H         187.2161  148.9601  171.7406 H        78        0    0.0000
   1210 H         187.5818  147.2398  171.7469 H        78        0    0.0000
   1211 H         185.7953  149.1775  174.5042 H        78        0    0.0000
   1212 H         187.4038  148.5318  174.1982 H        78        0    0.0000
   1213 H         186.9866  146.5023  175.2695 H        78        0    0.0000
   1214 H         185.3190  148.6142  176.6082 H        78        0    0.0000
   1215 H         184.9112  146.9551  177.0269 H        78        0    0.0000
   1216 C         186.5556  150.5345  179.9232 C.3      79        0    0.0000
   1217 C         186.2098  149.8119  178.6287 C.3      79        0    0.0000
   1218 C         186.7498  148.3987  178.8715 C.3      79        0    0.0000
   1219 C         186.9182  147.5349  177.6178 C.3      79        0    0.0000
   1220 C         188.0209  148.5906  179.7218 C.3      79        0    0.0000
   1221 C         187.9797  150.0502  180.2150 C.3      79        0    0.0000
   1222 C         188.4706  150.2771  181.6481 C.3      79        0    0.0000
   1223 H         186.5061  151.6219  179.8102 H        79        0    0.0000
   1224 H         185.8515  150.2418  180.7098 H        79        0    0.0000
   1225 H         185.1327  149.8129  178.4352 H        79        0    0.0000
   1226 H         186.7074  150.3042  177.7859 H        79        0    0.0000
   1227 H         186.0173  147.8828  179.5104 H        79        0    0.0000
   1228 H         187.8226  147.8505  177.0844 H        79        0    0.0000
   1229 H         187.0778  146.4929  177.9194 H        79        0    0.0000
   1230 H         188.9424  148.4220  179.1540 H        79        0    0.0000
   1231 H         188.0260  147.8642  180.5415 H        79        0    0.0000
   1232 H         188.6523  150.6242  179.5598 H        79        0    0.0000
   1233 H         188.8892  151.2874  181.7274 H        79        0    0.0000
   1234 H         187.6138  150.2366  182.3311 H        79        0    0.0000
   1235 C         189.5419  149.2523  182.1278 C.3      80        0    0.0000
   1236 C         189.5233  148.9924  183.6409 C.3      80        0    0.0000
   1237 H         190.5216  149.6725  181.8666 H        80        0    0.0000
   1238 H         189.4402  148.3190  181.5615 H        80        0    0.0000
   1239 H         189.8534  149.9083  184.1478 H        80        0    0.0000
   1240 H         188.5074  148.7856  183.9977 H        80        0    0.0000
   1241 C         190.0638  147.0203  187.7583 C.3      81        0    0.0000
   1242 C         189.5637  147.6770  186.4690 C.3      81        0    0.0000
   1243 C         190.8044  147.9182  185.5992 C.3      81        0    0.0000
   1244 C         190.4889  147.8465  184.1026 C.3      81        0    0.0000
   1245 C         191.7898  146.8549  186.0956 C.3      81        0    0.0000
   1246 C         191.5860  146.8921  187.6139 C.3      81        0    0.0000
   1247 C         192.1413  145.6771  188.3622 C.3      81        0    0.0000
   1248 H         189.8017  147.6167  188.6389 H        81        0    0.0000
   1249 H         189.5880  146.0395  187.8768 H        81        0    0.0000
   1250 H         189.0401  148.6167  186.6755 H        81        0    0.0000
   1251 H         188.8492  147.0094  185.9727 H        81        0    0.0000
   1252 H         191.2072  148.9116  185.8448 H        81        0    0.0000
   1253 H         190.0180  146.8820  183.8777 H        81        0    0.0000
   1254 H         191.4142  147.8907  183.5163 H        81        0    0.0000
   1255 H         192.8213  147.0907  185.8156 H        81        0    0.0000
   1256 H         191.5391  145.8669  185.6897 H        81        0    0.0000
   1257 H         192.0460  147.8104  188.0071 H        81        0    0.0000
   1258 H         192.9505  145.2131  187.7862 H        81        0    0.0000
   1259 H         191.3522  144.9224  188.4630 H        81        0    0.0000
   1260 C         192.6595  146.0425  189.7802 C.3      82        0    0.0000
   1261 C         193.0748  144.8292  190.6245 C.3      82        0    0.0000
   1262 H         193.5431  146.6785  189.6404 H        82        0    0.0000
   1263 H         191.9126  146.6537  190.3003 H        82        0    0.0000
   1264 H         192.3163  144.0386  190.5867 H        82        0    0.0000
   1265 H         193.9894  144.4078  190.1882 H        82        0    0.0000
   1266 C         195.8044  143.2037  194.1487 C.3      83        0    0.0000
   1267 C         195.2713  143.5098  192.7469 C.3      83        0    0.0000
   1268 C         193.7995  143.9271  192.9171 C.3      83        0    0.0000
   1269 C         193.4036  145.1750  192.1182 C.3      83        0    0.0000
   1270 C         193.6303  144.1232  194.4271 C.3      83        0    0.0000
   1271 C         194.5755  143.0950  195.0579 C.3      83        0    0.0000
   1272 C         193.9681  141.6796  195.0882 C.3      83        0    0.0000
   1273 H         196.4402  142.3134  194.1573 H        83        0    0.0000
   1274 H         196.4251  144.0453  194.4820 H        83        0    0.0000
   1275 H         195.8822  144.2871  192.2749 H        83        0    0.0000
   1276 H         195.3341  142.6184  192.1118 H        83        0    0.0000
   1277 H         193.1642  143.0844  192.6091 H        83        0    0.0000
   1278 H         192.5163  145.6311  192.5732 H        83        0    0.0000
   1279 H         194.2022  145.9247  192.1583 H        83        0    0.0000
   1280 H         192.5900  143.9947  194.7433 H        83        0    0.0000
   1281 H         193.9428  145.1344  194.7184 H        83        0    0.0000
   1282 H         194.8283  143.4059  196.0796 H        83        0    0.0000
   1283 H         194.2508  141.1085  194.1970 H        83        0    0.0000
   1284 H         192.8741  141.7530  195.0857 H        83        0    0.0000
   1285 C         194.0460  137.2016  196.2368 C.3      84        0    0.0000
   1286 C         193.8938  138.5224  195.4786 C.3      84        0    0.0000
   1287 C         193.5888  139.6022  196.5323 C.3      84        0    0.0000
   1288 C         194.3978  140.8939  196.3610 C.3      84        0    0.0000
   1289 C         193.8638  138.9152  197.8738 C.3      84        0    0.0000
   1290 C         193.4843  137.4488  197.6412 C.3      84        0    0.0000
   1291 C         191.9649  137.2130  197.7357 C.3      84        0    0.0000
   1292 H         193.5666  136.3714  195.7094 H        84        0    0.0000
   1293 H         195.1138  136.9597  196.3140 H        84        0    0.0000
   1294 H         194.8033  138.7323  194.9050 H        84        0    0.0000
   1295 H         193.0667  138.4578  194.7620 H        84        0    0.0000
   1296 H         192.5162  139.8386  196.4835 H        84        0    0.0000
   1297 H         194.2442  141.5372  197.2355 H        84        0    0.0000
   1298 H         195.4699  140.6709  196.3150 H        84        0    0.0000
   1299 H         193.3015  139.3752  198.6929 H        84        0    0.0000
   1300 H         194.9302  138.9816  198.1255 H        84        0    0.0000
   1301 H         193.9986  136.8149  198.3746 H        84        0    0.0000
   1302 H         191.6213  136.5279  196.9528 H        84        0    0.0000
   1303 H         191.4390  138.1627  197.5814 H        84        0    0.0000
   1304 C         194.5057  138.4704  200.3311 C.3      85        0    0.0000
   1305 C         193.0680  138.5841  199.8264 C.3      85        0    0.0000
   1306 C         192.3418  137.3029  200.2716 C.3      85        0    0.0000
   1307 C         191.5530  136.6521  199.1277 C.3      85        0    0.0000
   1308 C         193.4468  136.4104  200.8572 C.3      85        0    0.0000
   1309 C         194.4897  137.3881  201.4136 C.3      85        0    0.0000
   1310 C         194.1362  137.9682  202.7953 C.3      85        0    0.0000
   1311 H         195.1477  138.1437  199.5031 H        85        0    0.0000
   1312 H         194.8956  139.4308  200.6827 H        85        0    0.0000
   1313 H         193.0547  138.7263  198.7402 H        85        0    0.0000
   1314 H         192.5781  139.4580  200.2715 H        85        0    0.0000
   1315 H         191.6455  137.5732  201.0780 H        85        0    0.0000
   1316 H         190.4765  136.7935  199.2786 H        85        0    0.0000
   1317 H         191.7340  135.5705  199.1327 H        85        0    0.0000
   1318 H         193.0593  135.7197  201.6125 H        85        0    0.0000
   1319 H         193.9081  135.8061  200.0651 H        85        0    0.0000
   1320 H         195.4728  136.9031  201.4659 H        85        0    0.0000
   1321 H         193.1608  138.4662  202.7795 H        85        0    0.0000
   1322 H         194.8742  138.7335  203.0648 H        85        0    0.0000
   1323 C         195.3379  134.6286  201.2066 C.3      86        0    0.0000
   1324 C         194.1367  135.3376  201.8370 C.3      86        0    0.0000
   1325 C         194.4520  135.4888  203.3360 C.3      86        0    0.0000
   1326 C         194.1456  136.8795  203.9055 C.3      86        0    0.0000
   1327 C         195.9354  135.1243  203.4531 C.3      86        0    0.0000
   1328 C         196.1583  134.0625  202.3708 C.3      86        0    0.0000
   1329 C         195.6923  132.6632  202.8157 C.3      86        0    0.0000
   1330 H         195.0288  133.8746  200.4765 H        86        0    0.0000
   1331 H         195.9422  135.3695  200.6675 H        86        0    0.0000
   1332 H         193.9648  136.2982  201.3392 H        86        0    0.0000
   1333 H         193.2283  134.7380  201.7065 H        86        0    0.0000
   1334 H         193.8710  134.7364  203.8883 H        86        0    0.0000
   1335 H         193.1608  136.8657  204.3875 H        86        0    0.0000
   1336 H         194.8745  137.1454  204.6797 H        86        0    0.0000
   1337 H         196.1925  134.7693  204.4564 H        86        0    0.0000
   1338 H         196.5619  136.0003  203.2407 H        86        0    0.0000
   1339 H         197.2224  134.0258  202.1051 H        86        0    0.0000
   1340 H         195.6004  131.9859  201.9594 H        86        0    0.0000
   1341 H         194.6975  132.7385  203.2706 H        86        0    0.0000
   1342 C         196.6582  132.0392  203.8643 C.3      87        0    0.0000
   1343 C         196.1736  132.1712  205.3152 C.3      87        0    0.0000
   1344 H         196.7356  130.9704  203.6270 H        87        0    0.0000
   1345 H         197.6622  132.4615  203.7391 H        87        0    0.0000
   1346 H         195.2363  132.7370  205.3727 H        87        0    0.0000
   1347 H         195.9560  131.1644  205.6944 H        87        0    0.0000
   1348 C         197.2318  132.8015  206.2855 C.3      88        0    0.0000
   1349 C         197.7809  131.8210  207.3317 C.3      88        0    0.0000
   1350 H         198.0700  133.1402  205.6633 H        88        0    0.0000
   1351 H         196.8116  133.6964  206.7594 H        88        0    0.0000
   1352 H         197.1820  131.8405  208.2498 H        88        0    0.0000
   1353 H         197.6967  130.8055  206.9238 H        88        0    0.0000
   1354 C         199.7466  129.9843  210.8438 C.3      89        0    0.0000
   1355 C         198.8484  130.5597  209.7577 C.3      89        0    0.0000
   1356 C         199.8521  131.0589  208.7131 C.3      89        0    0.0000
   1357 C         199.2928  132.0441  207.6822 C.3      89        0    0.0000
   1358 C         201.0641  131.5604  209.5222 C.3      89        0    0.0000
   1359 C         200.8611  131.0299  210.9550 C.3      89        0    0.0000
   1360 C         202.1313  130.5630  211.6725 C.3      89        0    0.0000
   1361 H         199.2114  129.8516  211.7891 H        89        0    0.0000
   1362 H         200.1284  129.0069  210.5288 H        89        0    0.0000
   1363 H         198.1686  129.8063  209.3478 H        89        0    0.0000
   1364 H         198.2439  131.3747  210.1708 H        89        0    0.0000
   1365 H         200.1915  130.1765  208.1499 H        89        0    0.0000
   1366 H         199.4201  133.0662  208.0581 H        89        0    0.0000
   1367 H         199.8824  131.9717  206.7606 H        89        0    0.0000
   1368 H         201.1390  132.6530  209.5437 H        89        0    0.0000
   1369 H         201.9884  131.1966  209.0605 H        89        0    0.0000
   1370 H         200.4570  131.8650  211.5468 H        89        0    0.0000
   1371 H         202.9960  130.7416  211.0222 H        89        0    0.0000
   1372 H         202.2809  131.1741  212.5704 H        89        0    0.0000
   1373 C         202.1179  129.0607  212.0859 C.3      90        0    0.0000
   1374 C         202.1783  128.8306  213.6028 C.3      90        0    0.0000
   1375 H         201.1753  128.6384  211.7148 H        90        0    0.0000
   1376 H         202.9249  128.5281  211.5692 H        90        0    0.0000
   1377 H         203.2025  128.9298  213.9808 H        90        0    0.0000
   1378 H         201.5865  129.6160  214.0901 H        90        0    0.0000
   1379 C         202.6773  124.6034  211.8300 C.3      91        0    0.0000
   1380 C         202.9057  126.0020  212.3824 C.3      91        0    0.0000
   1381 C         201.5410  126.3826  212.9704 C.3      91        0    0.0000
   1382 C         201.5756  127.4583  214.0635 C.3      91        0    0.0000
   1383 C         200.8744  125.0510  213.3730 C.3      91        0    0.0000
   1384 C         201.8364  123.9372  212.9209 C.3      91        0    0.0000
   1385 C         201.1510  122.6622  212.4234 C.3      91        0    0.0000
   1386 H         202.1274  124.6546  210.8823 H        91        0    0.0000
   1387 H         203.6185  124.0745  211.6519 H        91        0    0.0000
   1388 H         203.6904  125.9703  213.1461 H        91        0    0.0000
   1389 H         203.2248  126.7018  211.6036 H        91        0    0.0000
   1390 H         200.9409  126.7974  212.1469 H        91        0    0.0000
   1391 H         200.5554  127.6278  214.4281 H        91        0    0.0000
   1392 H         202.1555  127.0845  214.9156 H        91        0    0.0000
   1393 H         199.9055  124.9691  212.8647 H        91        0    0.0000
   1394 H         200.6756  124.9777  214.4474 H        91        0    0.0000
   1395 H         202.4983  123.6924  213.7644 H        91        0    0.0000
   1396 H         200.5709  122.8735  211.5173 H        91        0    0.0000
   1397 H         201.9141  121.9261  212.1438 H        91        0    0.0000
   1398 C         200.2170  122.0307  213.4937 C.3      92        0    0.0000
   1399 C         200.5609  120.5752  213.8411 C.3      92        0    0.0000
   1400 H         199.2010  122.0508  213.0791 H        92        0    0.0000
   1401 H         200.2024  122.6619  214.3900 H        92        0    0.0000
   1402 H         199.7011  119.9486  213.5716 H        92        0    0.0000
   1403 H         201.4099  120.2137  213.2491 H        92        0    0.0000
   1404 C         200.8380  120.3323  215.3652 C.3      93        0    0.0000
   1405 C         200.1290  119.0973  215.9391 C.3      93        0    0.0000
   1406 H         200.4673  121.2166  215.8994 H        93        0    0.0000
   1407 H         201.9191  120.2898  215.5420 H        93        0    0.0000
   1408 H         199.0476  119.2830  215.9140 H        93        0    0.0000
   1409 H         200.3091  118.2104  215.3202 H        93        0    0.0000
   1410 C         200.9032  115.1398  217.5795 C.3      94        0    0.0000
   1411 C         200.9120  116.3786  216.6852 C.3      94        0    0.0000
   1412 C         201.3996  117.5486  217.5573 C.3      94        0    0.0000
   1413 C         200.5001  118.7851  217.4303 C.3      94        0    0.0000
   1414 C         201.4739  116.9718  218.9795 C.3      94        0    0.0000
   1415 C         201.7827  115.4819  218.7849 C.3      94        0    0.0000
   1416 C         203.2669  115.1757  218.5134 C.3      94        0    0.0000
   1417 H         199.8766  114.9567  217.9219 H        94        0    0.0000
   1418 H         201.2300  114.2431  217.0438 H        94        0    0.0000
   1419 H         199.9171  116.5496  216.2597 H        94        0    0.0000
   1420 H         201.6012  116.2343  215.8448 H        94        0    0.0000
   1421 H         202.4163  117.8106  217.2319 H        94        0    0.0000
   1422 H         200.9871  119.6582  217.8799 H        94        0    0.0000
   1423 H         199.5723  118.6169  217.9902 H        94        0    0.0000
   1424 H         202.2181  117.4883  219.5934 H        94        0    0.0000
   1425 H         200.5039  117.0745  219.4832 H        94        0    0.0000
   1426 H         201.4496  114.9092  219.6599 H        94        0    0.0000
   1427 H         203.9147  115.9637  218.9122 H        94        0    0.0000
   1428 H         203.4375  115.1483  217.4304 H        94        0    0.0000
   1429 C         201.2536  112.9525  221.1240 C.3      95        0    0.0000
   1430 C         202.1208  114.2121  221.0493 C.3      95        0    0.0000
   1431 C         203.5224  113.7535  220.6321 C.3      95        0    0.0000
   1432 C         203.6970  113.8024  219.1024 C.3      95        0    0.0000
   1433 C         203.5921  112.3446  221.2347 C.3      95        0    0.0000
   1434 C         202.2040  111.7525  220.9778 C.3      95        0    0.0000
   1435 C         201.8901  110.5766  221.9097 C.3      95        0    0.0000
   1436 H         200.7035  112.9377  222.0717 H        95        0    0.0000
   1437 H         200.5111  112.9474  220.3178 H        95        0    0.0000
   1438 H         202.1706  114.6666  222.0470 H        95        0    0.0000
   1439 H         201.6940  114.9629  220.3766 H        95        0    0.0000
   1440 H         204.2787  114.3987  221.0975 H        95        0    0.0000
   1441 H         203.0772  113.0223  218.6440 H        95        0    0.0000
   1442 H         204.7317  113.5889  218.8136 H        95        0    0.0000
   1443 H         203.7796  112.4199  222.3138 H        95        0    0.0000
   1444 H         204.3853  111.7242  220.8071 H        95        0    0.0000
   1445 H         202.1633  111.4036  219.9363 H        95        0    0.0000
   1446 H         201.8556  109.6392  221.3425 H        95        0    0.0000
   1447 H         200.8967  110.7176  222.3518 H        95        0    0.0000
   1448 C         205.7509  112.9135  223.6574 C.3      96        0    0.0000
   1449 C         204.2626  112.6262  223.5319 C.3      96        0    0.0000
   1450 C         204.2186  111.2610  222.8340 C.3      96        0    0.0000
   1451 C         202.9341  110.4526  223.0565 C.3      96        0    0.0000
   1452 C         205.5271  110.5471  223.2313 C.3      96        0    0.0000
   1453 C         206.3278  111.5584  224.0720 C.3      96        0    0.0000
   1454 C         207.8447  111.4931  223.8781 C.3      96        0    0.0000
   1455 H         206.1577  113.2383  222.6919 H        96        0    0.0000
   1456 H         205.9566  113.6943  224.3960 H        96        0    0.0000
   1457 H         203.8103  112.5953  224.5291 H        96        0    0.0000
   1458 H         203.7449  113.3979  222.9535 H        96        0    0.0000
   1459 H         204.2811  111.4511  221.7521 H        96        0    0.0000
   1460 H         203.1962  109.3949  223.1794 H        96        0    0.0000
   1461 H         202.4681  110.7719  223.9962 H        96        0    0.0000
   1462 H         206.0721  110.2683  222.3208 H        96        0    0.0000
   1463 H         205.3585  109.6235  223.7949 H        96        0    0.0000
   1464 H         206.0861  111.3910  225.1317 H        96        0    0.0000
   1465 H         208.2951  112.4707  224.0870 H        96        0    0.0000
   1466 H         208.2724  110.7887  224.6014 H        96        0    0.0000
   1467 C         206.2242  109.6502  219.5577 C.3      97        0    0.0000
   1468 C         207.4243  110.4368  220.0623 C.3      97        0    0.0000
   1469 C         207.0564  110.7584  221.5163 C.3      97        0    0.0000
   1470 C         208.2439  111.0411  222.4453 C.3      97        0    0.0000
   1471 C         206.1170  109.6222  221.9701 C.3      97        0    0.0000
   1472 C         205.8987  108.7289  220.7351 C.3      97        0    0.0000
   1473 C         204.4977  108.1225  220.6233 C.3      97        0    0.0000
   1474 H         205.3890  110.3279  219.3427 H        97        0    0.0000
   1475 H         206.4550  109.0908  218.6460 H        97        0    0.0000
   1476 H         208.3245  109.8168  219.9913 H        97        0    0.0000
   1477 H         207.5952  111.3436  219.4736 H        97        0    0.0000
   1478 H         206.4516  111.6773  221.4989 H        97        0    0.0000
   1479 H         208.8592  110.1367  222.5215 H        97        0    0.0000
   1480 H         208.8765  111.8141  221.9930 H        97        0    0.0000
   1481 H         205.1716  110.0578  222.3168 H        97        0    0.0000
   1482 H         206.5210  109.0377  222.8034 H        97        0    0.0000
   1483 H         206.6463  107.9227  220.7584 H        97        0    0.0000
   1484 H         203.7405  108.9155  220.6323 H        97        0    0.0000
   1485 H         204.4019  107.6069  219.6603 H        97        0    0.0000
   1486 H         204.2840  107.4131  221.4228 H        97        0    0.0000
   1487 H         109.2765   65.6231  187.8810 H         0        0    0.0000
@<TRIPOS>BOND
     1     1     2      1
     2     1     6      1
     3     1     8      1
     4     1     9      1
     5     2     3      1
     6     2    10      1
     7     2    11      1
     8     3     4      1
     9     3     5      1
    10     3    12      1
    11     4    13      1
    12     4    14      1
    13     4  1487      H
    14     5     6      1
    15     5    15      1
    16     5    16      1
    17     6     7      1
    18     6    17      1
    19     7    18      1
    20     7    19      1
    21     7    23      1
    22    20    21      1
    23    20    25      1
    24    20    27      1
    25    20    28      1
    26    21    22      1
    27    21    29      1
    28    21    30      1
    29    22    23      1
    30    22    24      1
    31    22    31      1
    32    23    32      1
    33    23    33      1
    34    24    25      1
    35    24    34      1
    36    24    35      1
    37    25    26      1
    38    25    36      1
    39    26    37      1
    40    26    38      1
    41    26    39      1
    42    39    40      1
    43    39    41      1
    44    39    42      1
    45    40    43      1
    46    40    44      1
    47    40    48      1
    48    45    46      1
    49    45    50      1
    50    45    52      1
    51    45    53      1
    52    46    47      1
    53    46    54      1
    54    46    55      1
    55    47    48      1
    56    47    49      1
    57    47    56      1
    58    48    57      1
    59    48    58      1
    60    49    50      1
    61    49    59      1
    62    49    60      1
    63    50    51      1
    64    50    61      1
    65    51    62      1
    66    51    63      1
    67    51    64      1
    68    64    65      1
    69    64    66      1
    70    64    67      1
    71    65    68      1
    72    65    69      1
    73    65    73      1
    74    70    71      1
    75    70    75      1
    76    70    77      1
    77    70    78      1
    78    71    72      1
    79    71    79      1
    80    71    80      1
    81    72    73      1
    82    72    74      1
    83    72    81      1
    84    73    82      1
    85    73    83      1
    86    74    75      1
    87    74    84      1
    88    74    85      1
    89    75    76      1
    90    75    86      1
    91    76    87      1
    92    76    88      1
    93    76    92      1
    94    89    90      1
    95    89    94      1
    96    89    96      1
    97    89    97      1
    98    90    91      1
    99    90    98      1
   100    90    99      1
   101    91    92      1
   102    91    93      1
   103    91   100      1
   104    92   101      1
   105    92   102      1
   106    93    94      1
   107    93   103      1
   108    93   104      1
   109    94    95      1
   110    94   105      1
   111    95   106      1
   112    95   107      1
   113    95   108      1
   114   108   109      1
   115   108   110      1
   116   108   111      1
   117   109   112      1
   118   109   113      1
   119   109   114      1
   120   114   115      1
   121   114   116      1
   122   114   117      1
   123   115   118      1
   124   115   119      1
   125   115   120      1
   126   120   121      1
   127   120   122      1
   128   120   123      1
   129   121   124      1
   130   121   125      1
   131   121   126      1
   132   126   127      1
   133   126   128      1
   134   126   129      1
   135   127   130      1
   136   127   131      1
   137   127   135      1
   138   132   133      1
   139   132   137      1
   140   132   139      1
   141   132   140      1
   142   133   134      1
   143   133   141      1
   144   133   142      1
   145   134   135      1
   146   134   136      1
   147   134   143      1
   148   135   144      1
   149   135   145      1
   150   136   137      1
   151   136   146      1
   152   136   147      1
   153   137   138      1
   154   137   148      1
   155   138   149      1
   156   138   150      1
   157   138   154      1
   158   151   152      1
   159   151   156      1
   160   151   158      1
   161   151   159      1
   162   152   153      1
   163   152   160      1
   164   152   161      1
   165   153   154      1
   166   153   155      1
   167   153   162      1
   168   154   163      1
   169   154   164      1
   170   155   156      1
   171   155   165      1
   172   155   166      1
   173   156   157      1
   174   156   167      1
   175   157   168      1
   176   157   169      1
   177   157   170      1
   178   170   171      1
   179   170   172      1
   180   170   173      1
   181   171   174      1
   182   171   175      1
   183   171   179      1
   184   176   177      1
   185   176   181      1
   186   176   183      1
   187   176   184      1
   188   177   178      1
   189   177   185      1
   190   177   186      1
   191   178   179      1
   192   178   180      1
   193   178   187      1
   194   179   188      1
   195   179   189      1
   196   180   181      1
   197   180   190      1
   198   180   191      1
   199   181   182      1
   200   181   192      1
   201   182   193      1
   202   182   194      1
   203   182   195      1
   204   195   196      1
   205   195   197      1
   206   195   198      1
   207   196   199      1
   208   196   200      1
   209   196   204      1
   210   201   202      1
   211   201   206      1
   212   201   208      1
   213   201   209      1
   214   202   203      1
   215   202   210      1
   216   202   211      1
   217   203   204      1
   218   203   205      1
   219   203   212      1
   220   204   213      1
   221   204   214      1
   222   205   206      1
   223   205   215      1
   224   205   216      1
   225   206   207      1
   226   206   217      1
   227   207   218      1
   228   207   219      1
   229   207   223      1
   230   220   221      1
   231   220   225      1
   232   220   227      1
   233   220   228      1
   234   221   222      1
   235   221   229      1
   236   221   230      1
   237   222   223      1
   238   222   224      1
   239   222   231      1
   240   223   232      1
   241   223   233      1
   242   224   225      1
   243   224   234      1
   244   224   235      1
   245   225   226      1
   246   225   236      1
   247   226   237      1
   248   226   238      1
   249   226   242      1
   250   239   240      1
   251   239   244      1
   252   239   246      1
   253   239   247      1
   254   240   241      1
   255   240   248      1
   256   240   249      1
   257   241   242      1
   258   241   243      1
   259   241   250      1
   260   242   251      1
   261   242   252      1
   262   243   244      1
   263   243   253      1
   264   243   254      1
   265   244   245      1
   266   244   255      1
   267   245   256      1
   268   245   257      1
   269   245   261      1
   270   258   259      1
   271   258   263      1
   272   258   265      1
   273   258   266      1
   274   259   260      1
   275   259   267      1
   276   259   268      1
   277   260   261      1
   278   260   262      1
   279   260   269      1
   280   261   270      1
   281   261   271      1
   282   262   263      1
   283   262   272      1
   284   262   273      1
   285   263   264      1
   286   263   274      1
   287   264   275      1
   288   264   276      1
   289   264   277      1
   290   277   278      1
   291   277   279      1
   292   277   280      1
   293   278   281      1
   294   278   282      1
   295   278   286      1
   296   283   284      1
   297   283   288      1
   298   283   290      1
   299   283   291      1
   300   284   285      1
   301   284   292      1
   302   284   293      1
   303   285   286      1
   304   285   287      1
   305   285   294      1
   306   286   295      1
   307   286   296      1
   308   287   288      1
   309   287   297      1
   310   287   298      1
   311   288   289      1
   312   288   299      1
   313   289   300      1
   314   289   301      1
   315   289   305      1
   316   302   303      1
   317   302   307      1
   318   302   309      1
   319   302   310      1
   320   303   304      1
   321   303   311      1
   322   303   312      1
   323   304   305      1
   324   304   306      1
   325   304   313      1
   326   305   314      1
   327   305   315      1
   328   306   307      1
   329   306   316      1
   330   306   317      1
   331   307   308      1
   332   307   318      1
   333   308   319      1
   334   308   320      1
   335   308   324      1
   336   321   322      1
   337   321   326      1
   338   321   328      1
   339   321   329      1
   340   322   323      1
   341   322   330      1
   342   322   331      1
   343   323   324      1
   344   323   325      1
   345   323   332      1
   346   324   333      1
   347   324   334      1
   348   325   326      1
   349   325   335      1
   350   325   336      1
   351   326   327      1
   352   326   337      1
   353   327   338      1
   354   327   339      1
   355   327   343      1
   356   340   341      1
   357   340   345      1
   358   340   347      1
   359   340   348      1
   360   341   342      1
   361   341   349      1
   362   341   350      1
   363   342   343      1
   364   342   344      1
   365   342   351      1
   366   343   352      1
   367   343   353      1
   368   344   345      1
   369   344   354      1
   370   344   355      1
   371   345   346      1
   372   345   356      1
   373   346   357      1
   374   346   358      1
   375   346   362      1
   376   359   360      1
   377   359   364      1
   378   359   366      1
   379   359   367      1
   380   360   361      1
   381   360   368      1
   382   360   369      1
   383   361   362      1
   384   361   363      1
   385   361   370      1
   386   362   371      1
   387   362   372      1
   388   363   364      1
   389   363   373      1
   390   363   374      1
   391   364   365      1
   392   364   375      1
   393   365   376      1
   394   365   377      1
   395   365   381      1
   396   378   379      1
   397   378   383      1
   398   378   385      1
   399   378   386      1
   400   379   380      1
   401   379   387      1
   402   379   388      1
   403   380   381      1
   404   380   382      1
   405   380   389      1
   406   381   390      1
   407   381   391      1
   408   382   383      1
   409   382   392      1
   410   382   393      1
   411   383   384      1
   412   383   394      1
   413   384   395      1
   414   384   396      1
   415   384   397      1
   416   397   398      1
   417   397   399      1
   418   397   400      1
   419   398   401      1
   420   398   402      1
   421   398   406      1
   422   403   404      1
   423   403   408      1
   424   403   410      1
   425   403   411      1
   426   404   405      1
   427   404   412      1
   428   404   413      1
   429   405   406      1
   430   405   407      1
   431   405   414      1
   432   406   415      1
   433   406   416      1
   434   407   408      1
   435   407   417      1
   436   407   418      1
   437   408   409      1
   438   408   419      1
   439   409   420      1
   440   409   421      1
   441   409   425      1
   442   422   423      1
   443   422   427      1
   444   422   429      1
   445   422   430      1
   446   423   424      1
   447   423   431      1
   448   423   432      1
   449   424   425      1
   450   424   426      1
   451   424   433      1
   452   425   434      1
   453   425   435      1
   454   426   427      1
   455   426   436      1
   456   426   437      1
   457   427   428      1
   458   427   438      1
   459   428   439      1
   460   428   440      1
   461   428   444      1
   462   441   442      1
   463   441   446      1
   464   441   448      1
   465   441   449      1
   466   442   443      1
   467   442   450      1
   468   442   451      1
   469   443   444      1
   470   443   445      1
   471   443   452      1
   472   444   453      1
   473   444   454      1
   474   445   446      1
   475   445   455      1
   476   445   456      1
   477   446   447      1
   478   446   457      1
   479   447   458      1
   480   447   459      1
   481   447   463      1
   482   460   461      1
   483   460   465      1
   484   460   467      1
   485   460   468      1
   486   461   462      1
   487   461   469      1
   488   461   470      1
   489   462   463      1
   490   462   464      1
   491   462   471      1
   492   463   472      1
   493   463   473      1
   494   464   465      1
   495   464   474      1
   496   464   475      1
   497   465   466      1
   498   465   476      1
   499   466   477      1
   500   466   478      1
   501   466   479      1
   502   479   480      1
   503   479   481      1
   504   479   482      1
   505   480   483      1
   506   480   484      1
   507   480   488      1
   508   485   486      1
   509   485   490      1
   510   485   492      1
   511   485   493      1
   512   486   487      1
   513   486   494      1
   514   486   495      1
   515   487   488      1
   516   487   489      1
   517   487   496      1
   518   488   497      1
   519   488   498      1
   520   489   490      1
   521   489   499      1
   522   489   500      1
   523   490   491      1
   524   490   501      1
   525   491   502      1
   526   491   503      1
   527   491   507      1
   528   504   505      1
   529   504   509      1
   530   504   511      1
   531   504   512      1
   532   505   506      1
   533   505   513      1
   534   505   514      1
   535   506   507      1
   536   506   508      1
   537   506   515      1
   538   507   516      1
   539   507   517      1
   540   508   509      1
   541   508   518      1
   542   508   519      1
   543   509   510      1
   544   509   520      1
   545   510   521      1
   546   510   522      1
   547   510   526      1
   548   523   524      1
   549   523   528      1
   550   523   530      1
   551   523   531      1
   552   524   525      1
   553   524   532      1
   554   524   533      1
   555   525   526      1
   556   525   527      1
   557   525   534      1
   558   526   535      1
   559   526   536      1
   560   527   528      1
   561   527   537      1
   562   527   538      1
   563   528   529      1
   564   528   539      1
   565   529   540      1
   566   529   541      1
   567   529   545      1
   568   542   543      1
   569   542   547      1
   570   542   549      1
   571   542   550      1
   572   543   544      1
   573   543   551      1
   574   543   552      1
   575   544   545      1
   576   544   546      1
   577   544   553      1
   578   545   554      1
   579   545   555      1
   580   546   547      1
   581   546   556      1
   582   546   557      1
   583   547   548      1
   584   547   558      1
   585   548   559      1
   586   548   560      1
   587   548   564      1
   588   561   562      1
   589   561   566      1
   590   561   568      1
   591   561   569      1
   592   562   563      1
   593   562   570      1
   594   562   571      1
   595   563   564      1
   596   563   565      1
   597   563   572      1
   598   564   573      1
   599   564   574      1
   600   565   566      1
   601   565   575      1
   602   565   576      1
   603   566   567      1
   604   566   577      1
   605   567   578      1
   606   567   579      1
   607   567   583      1
   608   580   581      1
   609   580   585      1
   610   580   587      1
   611   580   588      1
   612   581   582      1
   613   581   589      1
   614   581   590      1
   615   582   583      1
   616   582   584      1
   617   582   591      1
   618   583   592      1
   619   583   593      1
   620   584   585      1
   621   584   594      1
   622   584   595      1
   623   585   586      1
   624   585   596      1
   625   586   597      1
   626   586   598      1
   627   586   602      1
   628   599   600      1
   629   599   604      1
   630   599   606      1
   631   599   607      1
   632   600   601      1
   633   600   608      1
   634   600   609      1
   635   601   602      1
   636   601   603      1
   637   601   610      1
   638   602   611      1
   639   602   612      1
   640   603   604      1
   641   603   613      1
   642   603   614      1
   643   604   605      1
   644   604   615      1
   645   605   616      1
   646   605   617      1
   647   605   621      1
   648   618   619      1
   649   618   623      1
   650   618   625      1
   651   618   626      1
   652   619   620      1
   653   619   627      1
   654   619   628      1
   655   620   621      1
   656   620   622      1
   657   620   629      1
   658   621   630      1
   659   621   631      1
   660   622   623      1
   661   622   632      1
   662   622   633      1
   663   623   624      1
   664   623   634      1
   665   624   635      1
   666   624   636      1
   667   624   640      1
   668   637   638      1
   669   637   642      1
   670   637   644      1
   671   637   645      1
   672   638   639      1
   673   638   646      1
   674   638   647      1
   675   639   640      1
   676   639   641      1
   677   639   648      1
   678   640   649      1
   679   640   650      1
   680   641   642      1
   681   641   651      1
   682   641   652      1
   683   642   643      1
   684   642   653      1
   685   643   654      1
   686   643   655      1
   687   643   659      1
   688   656   657      1
   689   656   661      1
   690   656   663      1
   691   656   664      1
   692   657   658      1
   693   657   665      1
   694   657   666      1
   695   658   659      1
   696   658   660      1
   697   658   667      1
   698   659   668      1
   699   659   669      1
   700   660   661      1
   701   660   670      1
   702   660   671      1
   703   661   662      1
   704   661   672      1
   705   662   673      1
   706   662   674      1
   707   662   675      1
   708   675   676      1
   709   675   677      1
   710   675   678      1
   711   676   679      1
   712   676   680      1
   713   676   684      1
   714   681   682      1
   715   681   686      1
   716   681   688      1
   717   681   689      1
   718   682   683      1
   719   682   690      1
   720   682   691      1
   721   683   684      1
   722   683   685      1
   723   683   692      1
   724   684   693      1
   725   684   694      1
   726   685   686      1
   727   685   695      1
   728   685   696      1
   729   686   687      1
   730   686   697      1
   731   687   698      1
   732   687   699      1
   733   687   703      1
   734   700   701      1
   735   700   705      1
   736   700   707      1
   737   700   708      1
   738   701   702      1
   739   701   709      1
   740   701   710      1
   741   702   703      1
   742   702   704      1
   743   702   711      1
   744   703   712      1
   745   703   713      1
   746   704   705      1
   747   704   714      1
   748   704   715      1
   749   705   706      1
   750   705   716      1
   751   706   717      1
   752   706   718      1
   753   706   722      1
   754   719   720      1
   755   719   724      1
   756   719   726      1
   757   719   727      1
   758   720   721      1
   759   720   728      1
   760   720   729      1
   761   721   722      1
   762   721   723      1
   763   721   730      1
   764   722   731      1
   765   722   732      1
   766   723   724      1
   767   723   733      1
   768   723   734      1
   769   724   725      1
   770   724   735      1
   771   725   736      1
   772   725   737      1
   773   725   741      1
   774   738   739      1
   775   738   743      1
   776   738   745      1
   777   738   746      1
   778   739   740      1
   779   739   747      1
   780   739   748      1
   781   740   741      1
   782   740   742      1
   783   740   749      1
   784   741   750      1
   785   741   751      1
   786   742   743      1
   787   742   752      1
   788   742   753      1
   789   743   744      1
   790   743   754      1
   791   744   755      1
   792   744   756      1
   793   744   760      1
   794   757   758      1
   795   757   762      1
   796   757   764      1
   797   757   765      1
   798   758   759      1
   799   758   766      1
   800   758   767      1
   801   759   760      1
   802   759   761      1
   803   759   768      1
   804   760   769      1
   805   760   770      1
   806   761   762      1
   807   761   771      1
   808   761   772      1
   809   762   763      1
   810   762   773      1
   811   763   774      1
   812   763   775      1
   813   763   779      1
   814   776   777      1
   815   776   781      1
   816   776   783      1
   817   776   784      1
   818   777   778      1
   819   777   785      1
   820   777   786      1
   821   778   779      1
   822   778   780      1
   823   778   787      1
   824   779   788      1
   825   779   789      1
   826   780   781      1
   827   780   790      1
   828   780   791      1
   829   781   782      1
   830   781   792      1
   831   782   793      1
   832   782   794      1
   833   782   795      1
   834   795   796      1
   835   795   797      1
   836   795   798      1
   837   796   799      1
   838   796   800      1
   839   796   804      1
   840   801   802      1
   841   801   806      1
   842   801   808      1
   843   801   809      1
   844   802   803      1
   845   802   810      1
   846   802   811      1
   847   803   804      1
   848   803   805      1
   849   803   812      1
   850   804   813      1
   851   804   814      1
   852   805   806      1
   853   805   815      1
   854   805   816      1
   855   806   807      1
   856   806   817      1
   857   807   818      1
   858   807   819      1
   859   807   823      1
   860   820   821      1
   861   820   825      1
   862   820   827      1
   863   820   828      1
   864   821   822      1
   865   821   829      1
   866   821   830      1
   867   822   823      1
   868   822   824      1
   869   822   831      1
   870   823   832      1
   871   823   833      1
   872   824   825      1
   873   824   834      1
   874   824   835      1
   875   825   826      1
   876   825   836      1
   877   826   837      1
   878   826   838      1
   879   826   839      1
   880   839   840      1
   881   839   841      1
   882   839   842      1
   883   840   843      1
   884   840   844      1
   885   840   848      1
   886   845   846      1
   887   845   850      1
   888   845   852      1
   889   845   853      1
   890   846   847      1
   891   846   854      1
   892   846   855      1
   893   847   848      1
   894   847   849      1
   895   847   856      1
   896   848   857      1
   897   848   858      1
   898   849   850      1
   899   849   859      1
   900   849   860      1
   901   850   851      1
   902   850   861      1
   903   851   862      1
   904   851   863      1
   905   851   867      1
   906   864   865      1
   907   864   869      1
   908   864   871      1
   909   864   872      1
   910   865   866      1
   911   865   873      1
   912   865   874      1
   913   866   867      1
   914   866   868      1
   915   866   875      1
   916   867   876      1
   917   867   877      1
   918   868   869      1
   919   868   878      1
   920   868   879      1
   921   869   870      1
   922   869   880      1
   923   870   881      1
   924   870   882      1
   925   870   883      1
   926   883   884      1
   927   883   885      1
   928   883   886      1
   929   884   887      1
   930   884   888      1
   931   884   892      1
   932   889   890      1
   933   889   894      1
   934   889   896      1
   935   889   897      1
   936   890   891      1
   937   890   898      1
   938   890   899      1
   939   891   892      1
   940   891   893      1
   941   891   900      1
   942   892   901      1
   943   892   902      1
   944   893   894      1
   945   893   903      1
   946   893   904      1
   947   894   895      1
   948   894   905      1
   949   895   906      1
   950   895   907      1
   951   895   908      1
   952   908   909      1
   953   908   910      1
   954   908   911      1
   955   909   912      1
   956   909   913      1
   957   909   917      1
   958   914   915      1
   959   914   919      1
   960   914   921      1
   961   914   922      1
   962   915   916      1
   963   915   923      1
   964   915   924      1
   965   916   917      1
   966   916   918      1
   967   916   925      1
   968   917   926      1
   969   917   927      1
   970   918   919      1
   971   918   928      1
   972   918   929      1
   973   919   920      1
   974   919   930      1
   975   920   931      1
   976   920   932      1
   977   920   936      1
   978   933   934      1
   979   933   938      1
   980   933   940      1
   981   933   941      1
   982   934   935      1
   983   934   942      1
   984   934   943      1
   985   935   936      1
   986   935   937      1
   987   935   944      1
   988   936   945      1
   989   936   946      1
   990   937   938      1
   991   937   947      1
   992   937   948      1
   993   938   939      1
   994   938   949      1
   995   939   950      1
   996   939   951      1
   997   939   955      1
   998   952   953      1
   999   952   957      1
  1000   952   959      1
  1001   952   960      1
  1002   953   954      1
  1003   953   961      1
  1004   953   962      1
  1005   954   955      1
  1006   954   956      1
  1007   954   963      1
  1008   955   964      1
  1009   955   965      1
  1010   956   957      1
  1011   956   966      1
  1012   956   967      1
  1013   957   958      1
  1014   957   968      1
  1015   958   969      1
  1016   958   970      1
  1017   958   971      1
  1018   971   972      1
  1019   971   973      1
  1020   971   974      1
  1021   972   975      1
  1022   972   976      1
  1023   972   980      1
  1024   977   978      1
  1025   977   982      1
  1026   977   984      1
  1027   977   985      1
  1028   978   979      1
  1029   978   986      1
  1030   978   987      1
  1031   979   980      1
  1032   979   981      1
  1033   979   988      1
  1034   980   989      1
  1035   980   990      1
  1036   981   982      1
  1037   981   991      1
  1038   981   992      1
  1039   982   983      1
  1040   982   993      1
  1041   983   994      1
  1042   983   995      1
  1043   983   999      1
  1044   996   997      1
  1045   996  1001      1
  1046   996  1003      1
  1047   996  1004      1
  1048   997   998      1
  1049   997  1005      1
  1050   997  1006      1
  1051   998   999      1
  1052   998  1000      1
  1053   998  1007      1
  1054   999  1008      1
  1055   999  1009      1
  1056  1000  1001      1
  1057  1000  1010      1
  1058  1000  1011      1
  1059  1001  1002      1
  1060  1001  1012      1
  1061  1002  1013      1
  1062  1002  1014      1
  1063  1002  1015      1
  1064  1015  1016      1
  1065  1015  1017      1
  1066  1015  1018      1
  1067  1016  1019      1
  1068  1016  1020      1
  1069  1016  1024      1
  1070  1021  1022      1
  1071  1021  1026      1
  1072  1021  1028      1
  1073  1021  1029      1
  1074  1022  1023      1
  1075  1022  1030      1
  1076  1022  1031      1
  1077  1023  1024      1
  1078  1023  1025      1
  1079  1023  1032      1
  1080  1024  1033      1
  1081  1024  1034      1
  1082  1025  1026      1
  1083  1025  1035      1
  1084  1025  1036      1
  1085  1026  1027      1
  1086  1026  1037      1
  1087  1027  1038      1
  1088  1027  1039      1
  1089  1027  1043      1
  1090  1040  1041      1
  1091  1040  1045      1
  1092  1040  1047      1
  1093  1040  1048      1
  1094  1041  1042      1
  1095  1041  1049      1
  1096  1041  1050      1
  1097  1042  1043      1
  1098  1042  1044      1
  1099  1042  1051      1
  1100  1043  1052      1
  1101  1043  1053      1
  1102  1044  1045      1
  1103  1044  1054      1
  1104  1044  1055      1
  1105  1045  1046      1
  1106  1045  1056      1
  1107  1046  1057      1
  1108  1046  1058      1
  1109  1046  1059      1
  1110  1059  1060      1
  1111  1059  1061      1
  1112  1059  1062      1
  1113  1060  1063      1
  1114  1060  1064      1
  1115  1060  1068      1
  1116  1065  1066      1
  1117  1065  1070      1
  1118  1065  1072      1
  1119  1065  1073      1
  1120  1066  1067      1
  1121  1066  1074      1
  1122  1066  1075      1
  1123  1067  1068      1
  1124  1067  1069      1
  1125  1067  1076      1
  1126  1068  1077      1
  1127  1068  1078      1
  1128  1069  1070      1
  1129  1069  1079      1
  1130  1069  1080      1
  1131  1070  1071      1
  1132  1070  1081      1
  1133  1071  1082      1
  1134  1071  1083      1
  1135  1071  1087      1
  1136  1084  1085      1
  1137  1084  1089      1
  1138  1084  1091      1
  1139  1084  1092      1
  1140  1085  1086      1
  1141  1085  1093      1
  1142  1085  1094      1
  1143  1086  1087      1
  1144  1086  1088      1
  1145  1086  1095      1
  1146  1087  1096      1
  1147  1087  1097      1
  1148  1088  1089      1
  1149  1088  1098      1
  1150  1088  1099      1
  1151  1089  1090      1
  1152  1089  1100      1
  1153  1090  1101      1
  1154  1090  1102      1
  1155  1090  1103      1
  1156  1103  1104      1
  1157  1103  1105      1
  1158  1103  1106      1
  1159  1104  1107      1
  1160  1104  1108      1
  1161  1104  1109      1
  1162  1109  1110      1
  1163  1109  1111      1
  1164  1109  1112      1
  1165  1110  1113      1
  1166  1110  1114      1
  1167  1110  1118      1
  1168  1115  1116      1
  1169  1115  1120      1
  1170  1115  1122      1
  1171  1115  1123      1
  1172  1116  1117      1
  1173  1116  1124      1
  1174  1116  1125      1
  1175  1117  1118      1
  1176  1117  1119      1
  1177  1117  1126      1
  1178  1118  1127      1
  1179  1118  1128      1
  1180  1119  1120      1
  1181  1119  1129      1
  1182  1119  1130      1
  1183  1120  1121      1
  1184  1120  1131      1
  1185  1121  1132      1
  1186  1121  1133      1
  1187  1121  1137      1
  1188  1134  1135      1
  1189  1134  1139      1
  1190  1134  1141      1
  1191  1134  1142      1
  1192  1135  1136      1
  1193  1135  1143      1
  1194  1135  1144      1
  1195  1136  1137      1
  1196  1136  1138      1
  1197  1136  1145      1
  1198  1137  1146      1
  1199  1137  1147      1
  1200  1138  1139      1
  1201  1138  1148      1
  1202  1138  1149      1
  1203  1139  1140      1
  1204  1139  1150      1
  1205  1140  1151      1
  1206  1140  1152      1
  1207  1140  1153      1
  1208  1153  1154      1
  1209  1153  1155      1
  1210  1153  1156      1
  1211  1154  1157      1
  1212  1154  1158      1
  1213  1154  1162      1
  1214  1159  1160      1
  1215  1159  1164      1
  1216  1159  1166      1
  1217  1159  1167      1
  1218  1160  1161      1
  1219  1160  1168      1
  1220  1160  1169      1
  1221  1161  1162      1
  1222  1161  1163      1
  1223  1161  1170      1
  1224  1162  1171      1
  1225  1162  1172      1
  1226  1163  1164      1
  1227  1163  1173      1
  1228  1163  1174      1
  1229  1164  1165      1
  1230  1164  1175      1
  1231  1165  1176      1
  1232  1165  1177      1
  1233  1165  1181      1
  1234  1178  1179      1
  1235  1178  1183      1
  1236  1178  1185      1
  1237  1178  1186      1
  1238  1179  1180      1
  1239  1179  1187      1
  1240  1179  1188      1
  1241  1180  1181      1
  1242  1180  1182      1
  1243  1180  1189      1
  1244  1181  1190      1
  1245  1181  1191      1
  1246  1182  1183      1
  1247  1182  1192      1
  1248  1182  1193      1
  1249  1183  1184      1
  1250  1183  1194      1
  1251  1184  1195      1
  1252  1184  1196      1
  1253  1184  1200      1
  1254  1197  1198      1
  1255  1197  1202      1
  1256  1197  1204      1
  1257  1197  1205      1
  1258  1198  1199      1
  1259  1198  1206      1
  1260  1198  1207      1
  1261  1199  1200      1
  1262  1199  1201      1
  1263  1199  1208      1
  1264  1200  1209      1
  1265  1200  1210      1
  1266  1201  1202      1
  1267  1201  1211      1
  1268  1201  1212      1
  1269  1202  1203      1
  1270  1202  1213      1
  1271  1203  1214      1
  1272  1203  1215      1
  1273  1203  1219      1
  1274  1216  1217      1
  1275  1216  1221      1
  1276  1216  1223      1
  1277  1216  1224      1
  1278  1217  1218      1
  1279  1217  1225      1
  1280  1217  1226      1
  1281  1218  1219      1
  1282  1218  1220      1
  1283  1218  1227      1
  1284  1219  1228      1
  1285  1219  1229      1
  1286  1220  1221      1
  1287  1220  1230      1
  1288  1220  1231      1
  1289  1221  1222      1
  1290  1221  1232      1
  1291  1222  1233      1
  1292  1222  1234      1
  1293  1222  1235      1
  1294  1235  1236      1
  1295  1235  1237      1
  1296  1235  1238      1
  1297  1236  1239      1
  1298  1236  1240      1
  1299  1236  1244      1
  1300  1241  1242      1
  1301  1241  1246      1
  1302  1241  1248      1
  1303  1241  1249      1
  1304  1242  1243      1
  1305  1242  1250      1
  1306  1242  1251      1
  1307  1243  1244      1
  1308  1243  1245      1
  1309  1243  1252      1
  1310  1244  1253      1
  1311  1244  1254      1
  1312  1245  1246      1
  1313  1245  1255      1
  1314  1245  1256      1
  1315  1246  1247      1
  1316  1246  1257      1
  1317  1247  1258      1
  1318  1247  1259      1
  1319  1247  1260      1
  1320  1260  1261      1
  1321  1260  1262      1
  1322  1260  1263      1
  1323  1261  1264      1
  1324  1261  1265      1
  1325  1261  1269      1
  1326  1266  1267      1
  1327  1266  1271      1
  1328  1266  1273      1
  1329  1266  1274      1
  1330  1267  1268      1
  1331  1267  1275      1
  1332  1267  1276      1
  1333  1268  1269      1
  1334  1268  1270      1
  1335  1268  1277      1
  1336  1269  1278      1
  1337  1269  1279      1
  1338  1270  1271      1
  1339  1270  1280      1
  1340  1270  1281      1
  1341  1271  1272      1
  1342  1271  1282      1
  1343  1272  1283      1
  1344  1272  1284      1
  1345  1272  1288      1
  1346  1285  1286      1
  1347  1285  1290      1
  1348  1285  1292      1
  1349  1285  1293      1
  1350  1286  1287      1
  1351  1286  1294      1
  1352  1286  1295      1
  1353  1287  1288      1
  1354  1287  1289      1
  1355  1287  1296      1
  1356  1288  1297      1
  1357  1288  1298      1
  1358  1289  1290      1
  1359  1289  1299      1
  1360  1289  1300      1
  1361  1290  1291      1
  1362  1290  1301      1
  1363  1291  1302      1
  1364  1291  1303      1
  1365  1291  1307      1
  1366  1304  1305      1
  1367  1304  1309      1
  1368  1304  1311      1
  1369  1304  1312      1
  1370  1305  1306      1
  1371  1305  1313      1
  1372  1305  1314      1
  1373  1306  1307      1
  1374  1306  1308      1
  1375  1306  1315      1
  1376  1307  1316      1
  1377  1307  1317      1
  1378  1308  1309      1
  1379  1308  1318      1
  1380  1308  1319      1
  1381  1309  1310      1
  1382  1309  1320      1
  1383  1310  1321      1
  1384  1310  1322      1
  1385  1310  1326      1
  1386  1323  1324      1
  1387  1323  1328      1
  1388  1323  1330      1
  1389  1323  1331      1
  1390  1324  1325      1
  1391  1324  1332      1
  1392  1324  1333      1
  1393  1325  1326      1
  1394  1325  1327      1
  1395  1325  1334      1
  1396  1326  1335      1
  1397  1326  1336      1
  1398  1327  1328      1
  1399  1327  1337      1
  1400  1327  1338      1
  1401  1328  1329      1
  1402  1328  1339      1
  1403  1329  1340      1
  1404  1329  1341      1
  1405  1329  1342      1
  1406  1342  1343      1
  1407  1342  1344      1
  1408  1342  1345      1
  1409  1343  1346      1
  1410  1343  1347      1
  1411  1343  1348      1
  1412  1348  1349      1
  1413  1348  1350      1
  1414  1348  1351      1
  1415  1349  1352      1
  1416  1349  1353      1
  1417  1349  1357      1
  1418  1354  1355      1
  1419  1354  1359      1
  1420  1354  1361      1
  1421  1354  1362      1
  1422  1355  1356      1
  1423  1355  1363      1
  1424  1355  1364      1
  1425  1356  1357      1
  1426  1356  1358      1
  1427  1356  1365      1
  1428  1357  1366      1
  1429  1357  1367      1
  1430  1358  1359      1
  1431  1358  1368      1
  1432  1358  1369      1
  1433  1359  1360      1
  1434  1359  1370      1
  1435  1360  1371      1
  1436  1360  1372      1
  1437  1360  1373      1
  1438  1373  1374      1
  1439  1373  1375      1
  1440  1373  1376      1
  1441  1374  1377      1
  1442  1374  1378      1
  1443  1374  1382      1
  1444  1379  1380      1
  1445  1379  1384      1
  1446  1379  1386      1
  1447  1379  1387      1
  1448  1380  1381      1
  1449  1380  1388      1
  1450  1380  1389      1
  1451  1381  1382      1
  1452  1381  1383      1
  1453  1381  1390      1
  1454  1382  1391      1
  1455  1382  1392      1
  1456  1383  1384      1
  1457  1383  1393      1
  1458  1383  1394      1
  1459  1384  1385      1
  1460  1384  1395      1
  1461  1385  1396      1
  1462  1385  1397      1
  1463  1385  1398      1
  1464  1398  1399      1
  1465  1398  1400      1
  1466  1398  1401      1
  1467  1399  1402      1
  1468  1399  1403      1
  1469  1399  1404      1
  1470  1404  1405      1
  1471  1404  1406      1
  1472  1404  1407      1
  1473  1405  1408      1
  1474  1405  1409      1
  1475  1405  1413      1
  1476  1410  1411      1
  1477  1410  1415      1
  1478  1410  1417      1
  1479  1410  1418      1
  1480  1411  1412      1
  1481  1411  1419      1
  1482  1411  1420      1
  1483  1412  1413      1
  1484  1412  1414      1
  1485  1412  1421      1
  1486  1413  1422      1
  1487  1413  1423      1
  1488  1414  1415      1
  1489  1414  1424      1
  1490  1414  1425      1
  1491  1415  1416      1
  1492  1415  1426      1
  1493  1416  1427      1
  1494  1416  1428      1
  1495  1416  1432      1
  1496  1429  1430      1
  1497  1429  1434      1
  1498  1429  1436      1
  1499  1429  1437      1
  1500  1430  1431      1
  1501  1430  1438      1
  1502  1430  1439      1
  1503  1431  1432      1
  1504  1431  1433      1
  1505  1431  1440      1
  1506  1432  1441      1
  1507  1432  1442      1
  1508  1433  1434      1
  1509  1433  1443      1
  1510  1433  1444      1
  1511  1434  1435      1
  1512  1434  1445      1
  1513  1435  1446      1
  1514  1435  1447      1
  1515  1435  1451      1
  1516  1448  1449      1
  1517  1448  1453      1
  1518  1448  1455      1
  1519  1448  1456      1
  1520  1449  1450      1
  1521  1449  1457      1
  1522  1449  1458      1
  1523  1450  1451      1
  1524  1450  1452      1
  1525  1450  1459      1
  1526  1451  1460      1
  1527  1451  1461      1
  1528  1452  1453      1
  1529  1452  1462      1
  1530  1452  1463      1
  1531  1453  1454      1
  1532  1453  1464      1
  1533  1454  1465      1
  1534  1454  1466      1
  1535  1454  1470      1
  1536  1467  1468      1
  1537  1467  1472      1
  1538  1467  1474      1
  1539  1467  1475      1
  1540  1468  1469      1
  1541  1468  1476      1
  1542  1468  1477      1
  1543  1469  1470      1
  1544  1469  1471      1
  1545  1469  1478      1
  1546  1470  1479      1
  1547  1470  1480      1
  1548  1471  1472      1
  1549  1471  1481      1
  1550  1471  1482      1
  1551  1472  1473      1
  1552  1472  1483      1
  1553  1473  1484      1
  1554  1473  1485      1
  1555  1473  1486      H
