###
### Created by PolyChef-cpp17 on Wed Feb 26 21:14:13 2025
###

@<TRIPOS>MOLECULE
NO_INFO
1198 1253 1 0 0
SMALL
USER_CHARGES


@<TRIPOS>ATOM
      1 C         240.0570  114.6714  148.1450 C.3       0        0    0.0000
      2 C         240.5033  113.5187  147.2563 C.3       0        0    0.0000
      3 C         241.9900  113.8150  147.0334 C.3       0        0    0.0000
      4 C         242.6409  113.0692  145.8645 C.3       0        0    0.0000
      5 C         242.0941  115.3518  146.9815 C.3       0        0    0.0000
      6 C         240.7452  115.8819  147.5058 C.3       0        0    0.0000
      7 C         240.8244  117.1335  148.3853 C.3       0        0    0.0000
      8 H         238.9679  114.7780  148.1600 H         0        0    0.0000
      9 H         240.3962  114.4993  149.1724 H         0        0    0.0000
     10 H         240.3448  112.5478  147.7358 H         0        0    0.0000
     11 H         239.9353  113.5323  146.3196 H         0        0    0.0000
     12 H         242.5192  113.4930  147.9429 H         0        0    0.0000
     13 H         241.9204  112.9954  145.0413 H         0        0    0.0000
     14 H         243.4872  113.6576  145.4907 H         0        0    0.0000
     15 H         242.2687  115.7328  145.9695 H         0        0    0.0000
     16 H         242.9454  115.6816  147.5867 H         0        0    0.0000
     17 H         240.1495  116.1580  146.6226 H         0        0    0.0000
     18 H         239.9870  117.1272  149.0932 H         0        0    0.0000
     19 H         241.7426  117.0938  148.9833 H         0        0    0.0000
     20 C         237.2689  119.5516  147.2168 C.3       1        0    0.0000
     21 C         238.2212  118.4135  147.5917 C.3       1        0    0.0000
     22 C         239.5102  118.6325  146.7794 C.3       1        0    0.0000
     23 C         240.8004  118.4753  147.5934 C.3       1        0    0.0000
     24 C         239.3579  120.0399  146.1935 C.3       1        0    0.0000
     25 C         237.8523  120.1978  145.9555 C.3       1        0    0.0000
     26 C         237.3882  119.5145  144.6551 C.3       1        0    0.0000
     27 H         236.2401  119.1991  147.0969 H         1        0    0.0000
     28 H         237.2633  120.2895  148.0292 H         1        0    0.0000
     29 H         238.3950  118.4111  148.6734 H         1        0    0.0000
     30 H         237.7784  117.4446  147.3328 H         1        0    0.0000
     31 H         239.5190  117.9151  145.9464 H         1        0    0.0000
     32 H         241.6621  118.4947  146.9156 H         1        0    0.0000
     33 H         240.9216  119.3166  148.2854 H         1        0    0.0000
     34 H         239.9486  120.1703  145.2809 H         1        0    0.0000
     35 H         239.6949  120.7934  146.9170 H         1        0    0.0000
     36 H         237.5953  121.2641  145.9195 H         1        0    0.0000
     37 H         237.4387  118.4235  144.7416 H         1        0    0.0000
     38 H         238.0574  119.8004  143.8349 H         1        0    0.0000
     39 C         235.9405  119.9337  144.2673 C.3       2        0    0.0000
     40 C         235.0792  118.7806  143.7327 C.3       2        0    0.0000
     41 H         235.4668  120.3179  145.1798 H         2        0    0.0000
     42 H         235.9753  120.7682  143.5571 H         2        0    0.0000
     43 H         235.3840  118.4913  142.7201 H         2        0    0.0000
     44 H         235.2468  117.9051  144.3730 H         2        0    0.0000
     45 C         231.4634  116.0056  144.0162 C.3       3        0    0.0000
     46 C         232.8750  116.5811  143.8782 C.3       3        0    0.0000
     47 C         232.7327  117.9232  143.1380 C.3       3        0    0.0000
     48 C         233.5385  119.0714  143.7579 C.3       3        0    0.0000
     49 C         231.2261  118.2014  143.1378 C.3       3        0    0.0000
     50 C         230.5777  116.8149  143.0625 C.3       3        0    0.0000
     51 C         230.5595  116.2519  141.6287 C.3       3        0    0.0000
     52 H         231.4430  114.9276  143.8299 H         3        0    0.0000
     53 H         231.1180  116.1605  145.0464 H         3        0    0.0000
     54 H         233.3349  116.6870  144.8669 H         3        0    0.0000
     55 H         233.5090  115.9012  143.2972 H         3        0    0.0000
     56 H         233.0530  117.7782  142.0963 H         3        0    0.0000
     57 H         233.3492  119.9932  143.1950 H         3        0    0.0000
     58 H         233.2125  119.2555  144.7880 H         3        0    0.0000
     59 H         230.9298  118.8548  142.3108 H         3        0    0.0000
     60 H         230.9285  118.6941  144.0725 H         3        0    0.0000
     61 H         229.5513  116.8673  143.4474 H         3        0    0.0000
     62 H         229.9797  115.3239  141.5753 H         3        0    0.0000
     63 H         231.5829  116.0063  141.3212 H         3        0    0.0000
     64 C         229.9818  117.2791  140.6122 C.3       4        0    0.0000
     65 C         228.7050  116.8048  139.9035 C.3       4        0    0.0000
     66 H         229.7387  118.1855  141.1813 H         4        0    0.0000
     67 H         230.7575  117.5608  139.8905 H         4        0    0.0000
     68 H         228.6794  117.1412  138.8604 H         4        0    0.0000
     69 H         228.7166  115.7076  139.8792 H         4        0    0.0000
     70 C         225.1844  119.2673  141.9684 C.3       5        0    0.0000
     71 C         225.8156  119.2257  140.5742 C.3       5        0    0.0000
     72 C         227.2626  118.7574  140.7634 C.3       5        0    0.0000
     73 C         227.3800  117.2275  140.6276 C.3       5        0    0.0000
     74 C         227.5954  119.2986  142.1596 C.3       5        0    0.0000
     75 C         226.3250  119.0491  142.9765 C.3       5        0    0.0000
     76 C         226.2494  119.9378  144.2231 C.3       5        0    0.0000
     77 H         224.6741  120.2260  142.1150 H         5        0    0.0000
     78 H         224.4304  118.4789  142.0739 H         5        0    0.0000
     79 H         225.8151  120.2401  140.1555 H         5        0    0.0000
     80 H         225.2443  118.5950  139.8854 H         5        0    0.0000
     81 H         227.9082  119.2319  140.0132 H         5        0    0.0000
     82 H         226.5328  116.8518  140.0412 H         5        0    0.0000
     83 H         227.3253  116.7366  141.6051 H         5        0    0.0000
     84 H         227.7992  120.3753  142.0928 H         5        0    0.0000
     85 H         228.4716  118.8272  142.6146 H         5        0    0.0000
     86 H         226.3145  117.9951  143.2880 H         5        0    0.0000
     87 H         227.1222  119.7698  144.8647 H         5        0    0.0000
     88 H         225.3651  119.6654  144.8113 H         5        0    0.0000
     89 C         225.5727  124.2546  146.3027 C.3       6        0    0.0000
     90 C         226.3054  122.9776  145.8829 C.3       6        0    0.0000
     91 C         225.3799  122.2551  144.8951 C.3       6        0    0.0000
     92 C         226.1581  121.4463  143.8536 C.3       6        0    0.0000
     93 C         224.5318  123.3927  144.3167 C.3       6        0    0.0000
     94 C         224.2350  124.2504  145.5512 C.3       6        0    0.0000
     95 C         223.7374  125.6649  145.2408 C.3       6        0    0.0000
     96 H         225.4145  124.2874  147.3861 H         6        0    0.0000
     97 H         226.1798  125.1281  146.0365 H         6        0    0.0000
     98 H         226.5302  122.3428  146.7466 H         6        0    0.0000
     99 H         227.2619  123.2422  145.4164 H         6        0    0.0000
    100 H         224.7233  121.5847  145.4685 H         6        0    0.0000
    101 H         227.1754  121.8471  143.7703 H         6        0    0.0000
    102 H         225.6947  121.5525  142.8657 H         6        0    0.0000
    103 H         223.6156  123.0215  143.8466 H         6        0    0.0000
    104 H         225.0969  123.9629  143.5687 H         6        0    0.0000
    105 H         223.4945  123.7262  146.1728 H         6        0    0.0000
    106 H         224.0229  125.9535  144.2225 H         6        0    0.0000
    107 H         224.2233  126.3765  145.9191 H         6        0    0.0000
    108 C         222.1985  125.7990  145.4040 C.3       7        0    0.0000
    109 C         221.7511  127.1260  146.0335 C.3       7        0    0.0000
    110 H         221.7666  125.7372  144.3969 H         7        0    0.0000
    111 H         221.8102  124.9406  145.9646 H         7        0    0.0000
    112 H         222.4245  127.4302  146.8434 H         7        0    0.0000
    113 H         221.8135  127.9060  145.2640 H         7        0    0.0000
    114 C         220.2711  127.1184  146.5515 C.3       8        0    0.0000
    115 C         219.5913  128.4947  146.5177 C.3       8        0    0.0000
    116 H         220.3024  126.7797  147.5950 H         8        0    0.0000
    117 H         219.6895  126.3725  145.9972 H         8        0    0.0000
    118 H         219.9670  129.0809  147.3662 H         8        0    0.0000
    119 H         219.8587  129.0495  145.6107 H         8        0    0.0000
    120 C         218.0310  128.4383  146.6620 C.3       9        0    0.0000
    121 C         217.2883  129.4842  145.8184 C.3       9        0    0.0000
    122 H         217.7173  127.4426  146.3233 H         9        0    0.0000
    123 H         217.7550  128.5106  147.7206 H         9        0    0.0000
    124 H         217.3794  130.4860  146.2543 H         9        0    0.0000
    125 H         217.7660  129.5270  144.8312 H         9        0    0.0000
    126 C         215.7758  129.1494  145.5752 C.3      10        0    0.0000
    127 C         215.1341  129.9539  144.4357 C.3      10        0    0.0000
    128 H         215.2443  129.3917  146.5043 H        10        0    0.0000
    129 H         215.6568  128.0709  145.4182 H        10        0    0.0000
    130 H         215.1824  131.0178  144.7009 H        10        0    0.0000
    131 H         215.6949  129.8382  143.5008 H        10        0    0.0000
    132 C         211.1521  130.8399  146.8066 C.3      11        0    0.0000
    133 C         212.4324  130.1029  146.4388 C.3      11        0    0.0000
    134 C         212.6457  130.4986  144.9740 C.3      11        0    0.0000
    135 C         213.6226  129.6167  144.1904 C.3      11        0    0.0000
    136 C         211.2303  130.6167  144.3754 C.3      11        0    0.0000
    137 C         210.2652  130.6185  145.5770 C.3      11        0    0.0000
    138 C         209.0621  131.5590  145.4563 C.3      11        0    0.0000
    139 H         210.6980  130.4404  147.7186 H        11        0    0.0000
    140 H         211.3703  131.9008  146.9718 H        11        0    0.0000
    141 H         213.2730  130.4026  147.0723 H        11        0    0.0000
    142 H         212.2850  129.0238  146.5570 H        11        0    0.0000
    143 H         213.0732  131.5126  144.9766 H        11        0    0.0000
    144 H         213.4485  128.5669  144.4548 H        11        0    0.0000
    145 H         213.4102  129.7110  143.1188 H        11        0    0.0000
    146 H         210.9804  129.7862  143.7064 H        11        0    0.0000
    147 H         211.1625  131.5293  143.7735 H        11        0    0.0000
    148 H         209.8581  129.5992  145.6568 H        11        0    0.0000
    149 H         208.1460  130.9986  145.6774 H        11        0    0.0000
    150 H         209.1429  132.3438  146.2177 H        11        0    0.0000
    151 C         206.0236  134.6540  143.9500 C.3      12        0    0.0000
    152 C         207.0229  133.7991  144.7337 C.3      12        0    0.0000
    153 C         207.4768  132.6852  143.7810 C.3      12        0    0.0000
    154 C         208.9126  132.2313  144.0585 C.3      12        0    0.0000
    155 C         207.2585  133.3018  142.3953 C.3      12        0    0.0000
    156 C         205.9152  134.0211  142.5565 C.3      12        0    0.0000
    157 C         205.6110  135.0557  141.4694 C.3      12        0    0.0000
    158 H         205.0470  134.6831  144.4452 H        12        0    0.0000
    159 H         206.3906  135.6859  143.8946 H        12        0    0.0000
    160 H         206.5688  133.3811  145.6386 H        12        0    0.0000
    161 H         207.8665  134.4233  145.0521 H        12        0    0.0000
    162 H         206.7908  131.8336  143.8981 H        12        0    0.0000
    163 H         209.5813  133.0993  144.0157 H        12        0    0.0000
    164 H         209.2483  131.5352  143.2809 H        12        0    0.0000
    165 H         207.2230  132.5402  141.6098 H        12        0    0.0000
    166 H         208.0580  134.0125  142.1511 H        12        0    0.0000
    167 H         205.1148  133.2674  142.5838 H        12        0    0.0000
    168 H         206.5376  135.3748  140.9781 H        12        0    0.0000
    169 H         205.1746  135.9491  141.9319 H        12        0    0.0000
    170 C         204.6189  134.5173  140.4022 C.3      13        0    0.0000
    171 C         203.3439  135.3598  140.2545 C.3      13        0    0.0000
    172 H         205.1492  134.5308  139.4414 H        13        0    0.0000
    173 H         204.3815  133.4682  140.6145 H        13        0    0.0000
    174 H         203.4173  136.2968  140.8188 H        13        0    0.0000
    175 H         203.2398  135.6373  139.1977 H        13        0    0.0000
    176 C         199.3343  136.8640  141.7007 C.3      14        0    0.0000
    177 C         200.7262  136.7560  141.0797 C.3      14        0    0.0000
    178 C         200.7704  135.4150  140.3270 C.3      14        0    0.0000
    179 C         202.0303  134.6031  140.6552 C.3      14        0    0.0000
    180 C         199.4570  134.7119  140.7030 C.3      14        0    0.0000
    181 C         198.4603  135.8496  140.9588 C.3      14        0    0.0000
    182 C         197.8479  136.4509  139.6806 C.3      14        0    0.0000
    183 H         199.3954  136.5821  142.7596 H        14        0    0.0000
    184 H         198.9438  137.8857  141.6603 H        14        0    0.0000
    185 H         201.4971  136.8361  141.8539 H        14        0    0.0000
    186 H         200.8914  137.5791  140.3744 H        14        0    0.0000
    187 H         200.7553  135.6325  139.2496 H        14        0    0.0000
    188 H         201.9975  133.6293  140.1529 H        14        0    0.0000
    189 H         202.0612  134.4025  141.7329 H        14        0    0.0000
    190 H         199.1258  134.0174  139.9248 H        14        0    0.0000
    191 H         199.5857  134.1331  141.6269 H        14        0    0.0000
    192 H         197.6537  135.5046  141.6183 H        14        0    0.0000
    193 H         197.5432  135.6669  138.9790 H        14        0    0.0000
    194 H         198.6062  137.0538  139.1664 H        14        0    0.0000
    195 C         196.6330  137.3702  139.9918 C.3      15        0    0.0000
    196 C         196.3224  138.3892  138.8860 C.3      15        0    0.0000
    197 H         195.7604  136.7143  140.1053 H        15        0    0.0000
    198 H         196.7817  137.8642  140.9591 H        15        0    0.0000
    199 H         197.2408  138.7613  138.4171 H        15        0    0.0000
    200 H         195.7544  137.8758  138.0997 H        15        0    0.0000
    201 C         197.0007  141.2407  136.4716 C.3      16        0    0.0000
    202 C         195.7798  140.4831  136.9913 C.3      16        0    0.0000
    203 C         195.6411  140.8394  138.4816 C.3      16        0    0.0000
    204 C         195.4449  139.5983  139.3622 C.3      16        0    0.0000
    205 C         196.9066  141.6464  138.8101 C.3      16        0    0.0000
    206 C         197.2820  142.3430  137.4960 C.3      16        0    0.0000
    207 C         196.4679  143.6163  137.2021 C.3      16        0    0.0000
    208 H         197.8559  140.5538  136.4362 H        16        0    0.0000
    209 H         196.8483  141.6198  135.4563 H        16        0    0.0000
    210 H         195.8959  139.4075  136.8190 H        16        0    0.0000
    211 H         194.8793  140.8002  136.4522 H        16        0    0.0000
    212 H         194.7676  141.4976  138.5909 H        16        0    0.0000
    213 H         194.3889  139.3047  139.3768 H        16        0    0.0000
    214 H         195.7204  139.8405  140.3957 H        16        0    0.0000
    215 H         196.7445  142.3458  139.6361 H        16        0    0.0000
    216 H         197.7220  140.9730  139.1051 H        16        0    0.0000
    217 H         198.3517  142.5885  137.4902 H        16        0    0.0000
    218 H         196.0740  144.0577  138.1239 H        16        0    0.0000
    219 H         195.6002  143.3552  136.5843 H        16        0    0.0000
    220 C         197.0026  148.0724  138.0524 C.3      17        0    0.0000
    221 C         196.8083  146.5541  138.0835 C.3      17        0    0.0000
    222 C         196.7557  146.0967  136.6199 C.3      17        0    0.0000
    223 C         197.3030  144.6789  136.4332 C.3      17        0    0.0000
    224 C         197.5432  147.1870  135.8857 C.3      17        0    0.0000
    225 C         197.0592  148.4690  136.5713 C.3      17        0    0.0000
    226 C         197.9449  149.6947  136.3305 C.3      17        0    0.0000
    227 H         196.1865  148.5909  138.5669 H        17        0    0.0000
    228 H         197.9320  148.3322  138.5732 H        17        0    0.0000
    229 H         195.8906  146.2789  138.6142 H        17        0    0.0000
    230 H         197.6450  146.0899  138.6192 H        17        0    0.0000
    231 H         195.7084  146.1355  136.2863 H        17        0    0.0000
    232 H         198.3370  144.6393  136.7963 H        17        0    0.0000
    233 H         197.3319  144.4196  135.3684 H        17        0    0.0000
    234 H         197.3306  147.1922  134.8119 H        17        0    0.0000
    235 H         198.6233  147.0516  136.0232 H        17        0    0.0000
    236 H         196.0342  148.6816  136.2341 H        17        0    0.0000
    237 H         198.9513  149.3830  136.0275 H        17        0    0.0000
    238 H         198.0553  150.2514  137.2688 H        17        0    0.0000
    239 C         199.3410  153.7477  134.7860 C.3      18        0    0.0000
    240 C         199.1718  152.4507  135.5810 C.3      18        0    0.0000
    241 C         197.6691  152.1178  135.5654 C.3      18        0    0.0000
    242 C         197.3539  150.6489  135.2566 C.3      18        0    0.0000
    243 C         197.0770  153.0729  134.5241 C.3      18        0    0.0000
    244 C         197.9354  154.3380  134.6289 C.3      18        0    0.0000
    245 C         197.5195  155.2340  135.8110 C.3      18        0    0.0000
    246 H         200.0546  154.4270  135.2619 H        18        0    0.0000
    247 H         199.7417  153.5040  133.7937 H        18        0    0.0000
    248 H         199.7878  151.6585  135.1414 H        18        0    0.0000
    249 H         199.5114  152.5894  136.6141 H        18        0    0.0000
    250 H         197.2477  152.3790  136.5467 H        18        0    0.0000
    251 H         196.2667  150.5092  135.2274 H        18        0    0.0000
    252 H         197.7361  150.3753  134.2665 H        18        0    0.0000
    253 H         196.0137  153.2646  134.7011 H        18        0    0.0000
    254 H         197.1740  152.6475  133.5168 H        18        0    0.0000
    255 H         197.8641  154.9095  133.6948 H        18        0    0.0000
    256 H         198.0989  154.9970  136.7102 H        18        0    0.0000
    257 H         196.4660  155.0506  136.0535 H        18        0    0.0000
    258 C         194.8893  158.6750  133.9796 C.3      19        0    0.0000
    259 C         195.3221  157.3645  134.6414 C.3      19        0    0.0000
    260 C         196.8069  157.1630  134.2891 C.3      19        0    0.0000
    261 C         197.6834  156.7449  135.4762 C.3      19        0    0.0000
    262 C         197.2416  158.5026  133.6862 C.3      19        0    0.0000
    263 C         195.9908  159.0294  132.9747 C.3      19        0    0.0000
    264 C         195.7825  158.3792  131.5938 C.3      19        0    0.0000
    265 H         193.8932  158.5965  133.5336 H        19        0    0.0000
    266 H         194.8371  159.4579  134.7471 H        19        0    0.0000
    267 H         195.1437  157.4131  135.7213 H        19        0    0.0000
    268 H         194.7306  156.5273  134.2528 H        19        0    0.0000
    269 H         196.8741  156.3971  133.5032 H        19        0    0.0000
    270 H         198.7360  156.9357  135.2354 H        19        0    0.0000
    271 H         197.4451  157.3486  136.3595 H        19        0    0.0000
    272 H         198.0981  158.3909  133.0135 H        19        0    0.0000
    273 H         197.5329  159.2024  134.4803 H        19        0    0.0000
    274 H         196.0647  160.1182  132.8583 H        19        0    0.0000
    275 H         194.7672  158.5562  131.2221 H        19        0    0.0000
    276 H         195.9051  157.2931  131.6808 H        19        0    0.0000
    277 C         196.8114  158.9004  130.5490 C.3      20        0    0.0000
    278 C         198.1008  158.0701  130.4752 C.3      20        0    0.0000
    279 H         196.3194  158.8530  129.5690 H        20        0    0.0000
    280 H         197.0283  159.9580  130.7398 H        20        0    0.0000
    281 H         197.8873  156.9962  130.5294 H        20        0    0.0000
    282 H         198.5653  158.2487  129.4970 H        20        0    0.0000
    283 C         196.4106  160.4528  132.9269 C.3      21        0    0.0000
    284 C         197.0506  159.0677  132.8461 C.3      21        0    0.0000
    285 C         198.5654  159.2900  132.6950 C.3      21        0    0.0000
    286 C         199.1674  158.4521  131.5592 C.3      21        0    0.0000
    287 C         198.7211  160.8066  132.5044 C.3      21        0    0.0000
    288 C         197.5438  161.4230  133.2708 C.3      21        0    0.0000
    289 C         197.7654  161.5258  134.7908 C.3      21        0    0.0000
    290 H         195.9996  160.7117  131.9427 H        21        0    0.0000
    291 H         195.5818  160.4822  133.6411 H        21        0    0.0000
    292 H         196.6189  158.4952  132.0179 H        21        0    0.0000
    293 H         196.8516  158.5042  133.7653 H        21        0    0.0000
    294 H         199.0441  159.0049  133.6425 H        21        0    0.0000
    295 H         199.6283  157.5420  131.9603 H        21        0    0.0000
    296 H         199.9668  159.0236  131.0723 H        21        0    0.0000
    297 H         199.6949  161.1660  132.8512 H        21        0    0.0000
    298 H         198.6338  161.0679  131.4417 H        21        0    0.0000
    299 H         197.3121  162.4185  132.8710 H        21        0    0.0000
    300 H         198.4635  160.7590  135.1435 H        21        0    0.0000
    301 H         196.8147  161.3449  135.3071 H        21        0    0.0000
    302 C         200.5586  165.6055  134.1478 C.3      22        0    0.0000
    303 C         200.4400  164.2296  134.8016 C.3      22        0    0.0000
    304 C         199.2203  163.5421  134.1639 C.3      22        0    0.0000
    305 C         198.2811  162.9309  135.2121 C.3      22        0    0.0000
    306 C         198.5676  164.6294  133.2965 C.3      22        0    0.0000
    307 C         199.7261  165.5375  132.8650 C.3      22        0    0.0000
    308 C         200.5462  164.9938  131.6807 C.3      22        0    0.0000
    309 H         200.1249  166.3565  134.8205 H        22        0    0.0000
    310 H         201.6011  165.8904  133.9747 H        22        0    0.0000
    311 H         200.3530  164.3297  135.8890 H        22        0    0.0000
    312 H         201.3411  163.6372  134.6038 H        22        0    0.0000
    313 H         199.5898  162.7433  133.5054 H        22        0    0.0000
    314 H         197.4298  163.5969  135.3951 H        22        0    0.0000
    315 H         198.8163  162.8324  136.1642 H        22        0    0.0000
    316 H         198.0168  164.2046  132.4516 H        22        0    0.0000
    317 H         197.8551  165.2150  133.8921 H        22        0    0.0000
    318 H         199.3497  166.5377  132.6151 H        22        0    0.0000
    319 H         200.4424  163.9072  131.5910 H        22        0    0.0000
    320 H         201.6102  165.1933  131.8569 H        22        0    0.0000
    321 C         196.7969  166.1155  131.8677 C.3      23        0    0.0000
    322 C         197.8118  165.1260  131.2899 C.3      23        0    0.0000
    323 C         198.6345  165.8997  130.2441 C.3      23        0    0.0000
    324 C         200.1474  165.6663  130.3367 C.3      23        0    0.0000
    325 C         198.2556  167.3670  130.4693 C.3      23        0    0.0000
    326 C         196.7925  167.3223  130.9230 C.3      23        0    0.0000
    327 C         195.8158  167.1634  129.7423 C.3      23        0    0.0000
    328 H         195.8126  165.6571  132.0031 H        23        0    0.0000
    329 H         197.1413  166.4362  132.8592 H        23        0    0.0000
    330 H         198.4288  164.7097  132.0938 H        23        0    0.0000
    331 H         197.2953  164.2864  130.8102 H        23        0    0.0000
    332 H         198.2843  165.6064  129.2440 H        23        0    0.0000
    333 H         200.4654  165.0150  129.5139 H        23        0    0.0000
    334 H         200.6886  166.6123  130.2202 H        23        0    0.0000
    335 H         198.4032  167.9715  129.5685 H        23        0    0.0000
    336 H         198.8724  167.8029  131.2658 H        23        0    0.0000
    337 H         196.5507  168.2387  131.4762 H        23        0    0.0000
    338 H         195.0124  166.4593  129.9853 H        23        0    0.0000
    339 H         196.3519  166.7498  128.8798 H        23        0    0.0000
    340 C         198.3430  170.5993  129.8074 C.3      24        0    0.0000
    341 C         197.6564  169.3335  129.3136 C.3      24        0    0.0000
    342 C         196.1712  169.7057  129.3711 C.3      24        0    0.0000
    343 C         195.1953  168.5262  129.3187 C.3      24        0    0.0000
    344 C         196.0316  170.6296  130.5968 C.3      24        0    0.0000
    345 C         197.4685  171.0224  130.9923 C.3      24        0    0.0000
    346 C         197.6523  172.4688  131.4617 C.3      24        0    0.0000
    347 H         199.3788  170.4123  130.1069 H        24        0    0.0000
    348 H         198.3496  171.3514  129.0108 H        24        0    0.0000
    349 H         197.9741  169.0644  128.3015 H        24        0    0.0000
    350 H         197.8979  168.4978  129.9796 H        24        0    0.0000
    351 H         195.9626  170.3234  128.4845 H        24        0    0.0000
    352 H         194.3391  168.7408  129.9691 H        24        0    0.0000
    353 H         194.8011  168.4322  128.2999 H        24        0    0.0000
    354 H         195.5392  170.1409  131.4444 H        24        0    0.0000
    355 H         195.4109  171.4934  130.3352 H        24        0    0.0000
    356 H         197.7491  170.3805  131.8410 H        24        0    0.0000
    357 H         197.2234  173.1454  130.7130 H        24        0    0.0000
    358 H         197.0830  172.6206  132.3864 H        24        0    0.0000
    359 C         199.3759  176.3442  133.1817 C.3      25        0    0.0000
    360 C         198.7362  174.9665  133.1010 C.3      25        0    0.0000
    361 C         199.3189  174.3933  131.8076 C.3      25        0    0.0000
    362 C         199.1349  172.8766  131.7141 C.3      25        0    0.0000
    363 C         200.7847  174.8642  131.8263 C.3      25        0    0.0000
    364 C         200.8292  176.0898  132.7620 C.3      25        0    0.0000
    365 C         201.5756  177.3115  132.2114 C.3      25        0    0.0000
    366 H         199.3093  176.7672  134.1890 H        25        0    0.0000
    367 H         198.8616  177.0272  132.4970 H        25        0    0.0000
    368 H         199.0271  174.3615  133.9684 H        25        0    0.0000
    369 H         197.6438  175.0231  133.0734 H        25        0    0.0000
    370 H         198.8141  174.8769  130.9586 H        25        0    0.0000
    371 H         199.7631  172.4680  130.9137 H        25        0    0.0000
    372 H         199.4736  172.4123  132.6479 H        25        0    0.0000
    373 H         201.4465  174.0858  132.2260 H        25        0    0.0000
    374 H         201.1326  175.0855  130.8118 H        25        0    0.0000
    375 H         201.3738  175.7754  133.6648 H        25        0    0.0000
    376 H         202.5820  177.0066  131.9010 H        25        0    0.0000
    377 H         201.7039  178.0432  133.0179 H        25        0    0.0000
    378 C         203.0798  180.1128  128.9009 C.3      26        0    0.0000
    379 C         202.9771  179.2077  130.1310 C.3      26        0    0.0000
    380 C         201.5376  179.3438  130.6585 C.3      26        0    0.0000
    381 C         200.8696  178.0097  131.0136 C.3      26        0    0.0000
    382 C         200.7929  180.0918  129.5481 C.3      26        0    0.0000
    383 C         201.8461  181.0214  128.9357 C.3      26        0    0.0000
    384 C         202.0584  182.2989  129.7700 C.3      26        0    0.0000
    385 H         204.0286  180.6572  128.8738 H        26        0    0.0000
    386 H         203.0415  179.4886  127.9989 H        26        0    0.0000
    387 H         203.2361  178.1779  129.8613 H        26        0    0.0000
    388 H         203.6877  179.5291  130.9014 H        26        0    0.0000
    389 H         201.5563  179.9870  131.5500 H        26        0    0.0000
    390 H         199.8219  178.1886  131.2835 H        26        0    0.0000
    391 H         200.8642  177.3410  130.1452 H        26        0    0.0000
    392 H         199.9205  180.6313  129.9307 H        26        0    0.0000
    393 H         200.4384  179.3874  128.7844 H        26        0    0.0000
    394 H         201.5462  181.2964  127.9165 H        26        0    0.0000
    395 H         202.7475  182.1180  130.6023 H        26        0    0.0000
    396 H         201.1030  182.6096  130.2092 H        26        0    0.0000
    397 C         202.5968  183.4729  128.9017 C.3      27        0    0.0000
    398 C         202.7514  184.7950  129.6670 C.3      27        0    0.0000
    399 H         203.5881  183.1709  128.5402 H        27        0    0.0000
    400 H         201.9642  183.5969  128.0150 H        27        0    0.0000
    401 H         201.8581  185.0181  130.2622 H        27        0    0.0000
    402 H         203.5811  184.6826  130.3766 H        27        0    0.0000
    403 C         202.8661  189.4131  130.4284 C.3      28        0    0.0000
    404 C         203.1594  187.9231  130.5154 C.3      28        0    0.0000
    405 C         202.5199  187.3569  129.2412 C.3      28        0    0.0000
    406 C         203.0988  186.0222  128.7550 C.3      28        0    0.0000
    407 C         202.5514  188.5060  128.2126 C.3      28        0    0.0000
    408 C         203.1248  189.7278  128.9536 C.3      28        0    0.0000
    409 C         202.5216  191.0711  128.5357 C.3      28        0    0.0000
    410 H         201.8215  189.6108  130.6981 H        28        0    0.0000
    411 H         203.5085  189.9966  131.0950 H        28        0    0.0000
    412 H         204.2429  187.7641  130.5396 H        28        0    0.0000
    413 H         202.7352  187.4753  131.4195 H        28        0    0.0000
    414 H         201.4601  187.1696  129.4698 H        28        0    0.0000
    415 H         202.7296  185.8222  127.7421 H        28        0    0.0000
    416 H         204.1891  186.1108  128.6799 H        28        0    0.0000
    417 H         201.5301  188.6984  127.8611 H        28        0    0.0000
    418 H         203.1526  188.2737  127.3273 H        28        0    0.0000
    419 H         204.2124  189.7480  128.7915 H        28        0    0.0000
    420 H         201.5393  191.2066  129.0036 H        28        0    0.0000
    421 H         203.1594  191.8843  128.9021 H        28        0    0.0000
    422 C         202.2722  194.3304  124.8323 C.3      29        0    0.0000
    423 C         202.1169  192.8241  124.9880 C.3      29        0    0.0000
    424 C         202.1185  192.6358  126.5086 C.3      29        0    0.0000
    425 C         202.3773  191.2062  126.9938 C.3      29        0    0.0000
    426 C         203.0864  193.7064  127.0491 C.3      29        0    0.0000
    427 C         203.3399  194.6737  125.8762 C.3      29        0    0.0000
    428 C         203.4398  196.1552  126.2518 C.3      29        0    0.0000
    429 H         202.5828  194.6069  123.8200 H        29        0    0.0000
    430 H         201.3170  194.8244  125.0419 H        29        0    0.0000
    431 H         201.1929  192.4587  124.5293 H        29        0    0.0000
    432 H         202.9596  192.3137  124.5087 H        29        0    0.0000
    433 H         201.1138  192.9095  126.8648 H        29        0    0.0000
    434 H         201.5569  190.5604  126.6589 H        29        0    0.0000
    435 H         203.2904  190.8267  126.5201 H        29        0    0.0000
    436 H         204.0390  193.2863  127.3894 H        29        0    0.0000
    437 H         202.6384  194.1997  127.9184 H        29        0    0.0000
    438 H         204.3119  194.3953  125.4416 H        29        0    0.0000
    439 H         202.6435  196.3982  126.9653 H        29        0    0.0000
    440 H         204.3906  196.3305  126.7691 H        29        0    0.0000
    441 C         204.8337  200.5472  125.6229 C.3      30        0    0.0000
    442 C         204.9235  199.0288  125.6292 C.3      30        0    0.0000
    443 C         203.4652  198.5986  125.4576 C.3      30        0    0.0000
    444 C         203.3417  197.1309  125.0408 C.3      30        0    0.0000
    445 C         202.9036  199.6069  124.4385 C.3      30        0    0.0000
    446 C         203.8253  200.8421  124.5053 C.3      30        0    0.0000
    447 C         203.1077  202.1938  124.6102 C.3      30        0    0.0000
    448 H         205.8052  201.0131  125.4304 H        30        0    0.0000
    449 H         204.4821  200.8971  126.5995 H        30        0    0.0000
    450 H         205.5399  198.6814  124.7912 H        30        0    0.0000
    451 H         205.3608  198.6481  126.5573 H        30        0    0.0000
    452 H         202.9459  198.7528  126.4147 H        30        0    0.0000
    453 H         202.3918  196.9646  124.5190 H        30        0    0.0000
    454 H         204.1388  196.8885  124.3279 H        30        0    0.0000
    455 H         202.9283  199.1979  123.4208 H        30        0    0.0000
    456 H         201.8570  199.8393  124.6613 H        30        0    0.0000
    457 H         204.3896  200.8637  123.5611 H        30        0    0.0000
    458 H         202.0305  202.0387  124.4773 H        30        0    0.0000
    459 H         203.4368  202.8362  123.7847 H        30        0    0.0000
    460 C         203.0718  206.7203  125.7864 C.3      31        0    0.0000
    461 C         203.7216  205.4751  126.3701 C.3      31        0    0.0000
    462 C         202.7408  204.3539  126.0045 C.3      31        0    0.0000
    463 C         203.3461  202.9454  125.9513 C.3      31        0    0.0000
    464 C         202.0361  204.8206  124.7140 C.3      31        0    0.0000
    465 C         202.5660  206.2371  124.4256 C.3      31        0    0.0000
    466 C         201.5371  207.1944  123.8191 C.3      31        0    0.0000
    467 H         202.2415  207.0493  126.4232 H        31        0    0.0000
    468 H         203.7817  207.5479  125.6940 H        31        0    0.0000
    469 H         204.7064  205.3279  125.9135 H        31        0    0.0000
    470 H         203.8635  205.5574  127.4523 H        31        0    0.0000
    471 H         201.9718  204.3307  126.7909 H        31        0    0.0000
    472 H         204.4263  203.0156  126.1270 H        31        0    0.0000
    473 H         202.9329  202.3467  126.7717 H        31        0    0.0000
    474 H         200.9520  204.8291  124.8826 H        31        0    0.0000
    475 H         202.2189  204.1583  123.8612 H        31        0    0.0000
    476 H         203.4286  206.1495  123.7491 H        31        0    0.0000
    477 H         201.0777  206.7431  122.9317 H        31        0    0.0000
    478 H         200.7288  207.3621  124.5409 H        31        0    0.0000
    479 C         202.1548  208.5678  123.4337 C.3      32        0    0.0000
    480 C         201.3671  209.3256  122.3554 C.3      32        0    0.0000
    481 H         202.1600  209.1797  124.3447 H        32        0    0.0000
    482 H         203.2027  208.4325  123.1411 H        32        0    0.0000
    483 H         201.0248  208.6500  121.5627 H        32        0    0.0000
    484 H         200.4660  209.7433  122.8225 H        32        0    0.0000
    485 C         203.7278  211.6194  118.5943 C.3      33        0    0.0000
    486 C         203.9329  210.9305  119.9425 C.3      33        0    0.0000
    487 C         202.6054  210.2341  120.2884 C.3      33        0    0.0000
    488 C         202.1485  210.5291  121.7231 C.3      33        0    0.0000
    489 C         201.6216  210.7089  119.2079 C.3      33        0    0.0000
    490 C         202.4903  210.9688  117.9707 C.3      33        0    0.0000
    491 C         202.8517  209.7006  117.1761 C.3      33        0    0.0000
    492 H         203.5276  212.6846  118.7670 H        33        0    0.0000
    493 H         204.6178  211.5565  117.9603 H        33        0    0.0000
    494 H         204.2427  211.6585  120.7003 H        33        0    0.0000
    495 H         204.7318  210.1832  119.8685 H        33        0    0.0000
    496 H         202.7537  209.1508  120.1756 H        33        0    0.0000
    497 H         201.5224  211.4285  121.7462 H        33        0    0.0000
    498 H         203.0260  210.7382  122.3467 H        33        0    0.0000
    499 H         200.8256  209.9796  119.0286 H        33        0    0.0000
    500 H         201.1435  211.6484  119.5146 H        33        0    0.0000
    501 H         201.9934  211.6843  117.3032 H        33        0    0.0000
    502 H         203.9367  209.5606  117.1230 H        33        0    0.0000
    503 H         202.4991  209.8092  116.1432 H        33        0    0.0000
    504 C         199.7496  209.7076  120.3519 C.3      34        0    0.0000
    505 C         201.0681  209.0544  119.9666 C.3      34        0    0.0000
    506 C         200.8692  208.7290  118.4848 C.3      34        0    0.0000
    507 C         202.1926  208.4271  117.7774 C.3      34        0    0.0000
    508 C         200.1125  209.9541  117.9395 C.3      34        0    0.0000
    509 C         199.4382  210.6184  119.1575 C.3      34        0    0.0000
    510 C         197.9580  210.9774  118.9759 C.3      34        0    0.0000
    511 H         199.8311  210.2721  121.2861 H        34        0    0.0000
    512 H         198.9858  208.9353  120.4927 H        34        0    0.0000
    513 H         201.8968  209.7585  120.1094 H        34        0    0.0000
    514 H         201.2718  208.1598  120.5630 H        34        0    0.0000
    515 H         200.2059  207.8550  118.4102 H        34        0    0.0000
    516 H         202.8938  207.9520  118.4737 H        34        0    0.0000
    517 H         202.0155  207.7074  116.9693 H        34        0    0.0000
    518 H         200.8010  210.6722  117.4770 H        34        0    0.0000
    519 H         199.3995  209.6544  117.1642 H        34        0    0.0000
    520 H         199.9679  211.5671  119.3304 H        34        0    0.0000
    521 H         197.3425  210.1192  119.2702 H        34        0    0.0000
    522 H         197.7628  211.1536  117.9113 H        34        0    0.0000
    523 C         200.2926  211.5892  122.2301 C.3      35        0    0.0000
    524 C         199.0306  211.1331  121.4932 C.3      35        0    0.0000
    525 C         198.2896  212.4105  121.0768 C.3      35        0    0.0000
    526 C         197.4965  212.2268  119.7799 C.3      35        0    0.0000
    527 C         199.4099  213.4530  120.9979 C.3      35        0    0.0000
    528 C         200.2616  213.1233  122.2283 C.3      35        0    0.0000
    529 C         201.6657  213.7338  122.2146 C.3      35        0    0.0000
    530 H         200.3223  211.1982  123.2528 H        35        0    0.0000
    531 H         201.1781  211.2052  121.7096 H        35        0    0.0000
    532 H         198.4004  210.5036  122.1306 H        35        0    0.0000
    533 H         199.3143  210.5315  120.6213 H        35        0    0.0000
    534 H         197.6062  212.6911  121.8914 H        35        0    0.0000
    535 H         197.6242  213.1144  119.1488 H        35        0    0.0000
    536 H         196.4252  212.1454  119.9977 H        35        0    0.0000
    537 H         199.0204  214.4753  121.0321 H        35        0    0.0000
    538 H         199.9913  213.3358  120.0748 H        35        0    0.0000
    539 H         199.7226  213.4561  123.1274 H        35        0    0.0000
    540 H         201.8019  214.3937  123.0794 H        35        0    0.0000
    541 H         201.7805  214.3575  121.3199 H        35        0    0.0000
    542 C         203.5861  212.8762  118.5016 C.3      36        0    0.0000
    543 C         203.1840  213.5419  119.8103 C.3      36        0    0.0000
    544 C         203.4507  212.4459  120.8473 C.3      36        0    0.0000
    545 C         202.7805  212.6521  122.2090 C.3      36        0    0.0000
    546 C         203.1133  211.1219  120.1342 C.3      36        0    0.0000
    547 C         202.9936  211.4698  118.6375 C.3      36        0    0.0000
    548 C         203.5547  210.4237  117.6695 C.3      36        0    0.0000
    549 H         203.1869  213.4084  117.6327 H        36        0    0.0000
    550 H         204.6782  212.8569  118.4166 H        36        0    0.0000
    551 H         203.7701  214.4451  120.0065 H        36        0    0.0000
    552 H         202.1262  213.8244  119.7720 H        36        0    0.0000
    553 H         204.5357  212.4381  121.0311 H        36        0    0.0000
    554 H         202.3499  211.7009  122.5438 H        36        0    0.0000
    555 H         203.5437  212.9290  122.9459 H        36        0    0.0000
    556 H         202.1748  210.6777  120.4829 H        36        0    0.0000
    557 H         203.8981  210.3856  120.3387 H        36        0    0.0000
    558 H         201.9186  211.5540  118.4178 H        36        0    0.0000
    559 H         202.9851  209.4931  117.7785 H        36        0    0.0000
    560 H         203.4005  210.7687  116.6402 H        36        0    0.0000
    561 C         207.2072  209.2357  120.7745 C.3      37        0    0.0000
    562 C         206.7665  208.8611  119.3574 C.3      37        0    0.0000
    563 C         205.3259  209.3779  119.1934 C.3      37        0    0.0000
    564 C         205.0678  210.1109  117.8712 C.3      37        0    0.0000
    565 C         205.1018  210.2778  120.4128 C.3      37        0    0.0000
    566 C         205.9321  209.6316  121.5270 C.3      37        0    0.0000
    567 C         205.2142  208.4322  122.1744 C.3      37        0    0.0000
    568 H         207.7697  208.4283  121.2530 H        37        0    0.0000
    569 H         207.8760  210.1042  120.7184 H        37        0    0.0000
    570 H         207.4585  209.2897  118.6240 H        37        0    0.0000
    571 H         206.7887  207.7730  119.2261 H        37        0    0.0000
    572 H         204.6413  208.5212  119.2711 H        37        0    0.0000
    573 H         205.6224  211.0568  117.8662 H        37        0    0.0000
    574 H         205.4403  209.5198  117.0266 H        37        0    0.0000
    575 H         204.0410  210.3647  120.6690 H        37        0    0.0000
    576 H         205.4791  211.2896  120.2154 H        37        0    0.0000
    577 H         206.1604  210.3796  122.2969 H        37        0    0.0000
    578 H         205.1364  208.5565  123.2602 H        37        0    0.0000
    579 H         205.7979  207.5207  121.9992 H        37        0    0.0000
    580 C         202.2538  211.1084  119.6709 C.3      38        0    0.0000
    581 C         203.4757  210.2818  120.0412 C.3      38        0    0.0000
    582 C         203.0249  209.5157  121.2913 C.3      38        0    0.0000
    583 C         203.7928  208.2190  121.5775 C.3      38        0    0.0000
    584 C         201.4956  209.3636  121.1584 C.3      38        0    0.0000
    585 C         201.0993  210.1264  119.8810 C.3      38        0    0.0000
    586 C         199.7446  210.8353  119.9530 C.3      38        0    0.0000
    587 H         202.1640  211.9737  120.3389 H        38        0    0.0000
    588 H         202.3035  211.4743  118.6408 H        38        0    0.0000
    589 H         203.7279  209.6102  119.2136 H        38        0    0.0000
    590 H         204.3493  210.9106  120.2400 H        38        0    0.0000
    591 H         203.2006  210.1762  122.1536 H        38        0    0.0000
    592 H         203.2084  207.6057  122.2736 H        38        0    0.0000
    593 H         203.8810  207.6426  120.6490 H        38        0    0.0000
    594 H         201.0155  209.7972  122.0445 H        38        0    0.0000
    595 H         201.1711  208.3193  121.1013 H        38        0    0.0000
    596 H         201.0963  209.4142  119.0431 H        38        0    0.0000
    597 H         199.8535  211.8107  120.4419 H        38        0    0.0000
    598 H         199.3840  211.0316  118.9362 H        38        0    0.0000
    599 C         199.5806  209.8497  124.3973 C.3      39        0    0.0000
    600 C         199.9938  209.9814  122.9381 C.3      39        0    0.0000
    601 C         198.6588  210.2209  122.2253 C.3      39        0    0.0000
    602 C         198.6739  210.0000  120.7096 C.3      39        0    0.0000
    603 C         197.6256  209.3870  123.0080 C.3      39        0    0.0000
    604 C         198.3240  208.9766  124.3192 C.3      39        0    0.0000
    605 C         197.4389  208.9848  125.5693 C.3      39        0    0.0000
    606 H         200.3654  209.3876  125.0043 H        39        0    0.0000
    607 H         199.3686  210.8410  124.8128 H        39        0    0.0000
    608 H         200.6957  210.8070  122.7849 H        39        0    0.0000
    609 H         200.4784  209.0567  122.6058 H        39        0    0.0000
    610 H         198.3974  211.2780  122.3844 H        39        0    0.0000
    611 H         198.8469  208.9369  120.5044 H        39        0    0.0000
    612 H         197.6853  210.2427  120.3022 H        39        0    0.0000
    613 H         197.3053  208.4897  122.4675 H        39        0    0.0000
    614 H         196.7235  209.9853  123.1753 H        39        0    0.0000
    615 H         198.6645  207.9388  124.1843 H        39        0    0.0000
    616 H         198.0710  209.1227  126.4546 H        39        0    0.0000
    617 H         196.7652  209.8488  125.5258 H        39        0    0.0000
    618 C         194.1797  207.9066  128.5758 C.3      40        0    0.0000
    619 C         195.3105  208.5987  127.8109 C.3      40        0    0.0000
    620 C         196.1942  207.4821  127.2264 C.3      40        0    0.0000
    621 C         196.5865  207.6943  125.7590 C.3      40        0    0.0000
    622 C         195.3784  206.2018  127.4329 C.3      40        0    0.0000
    623 C         194.6052  206.4428  128.7339 C.3      40        0    0.0000
    624 C         195.4689  206.1951  129.9851 C.3      40        0    0.0000
    625 H         193.9625  208.4081  129.5237 H        40        0    0.0000
    626 H         193.2648  207.9519  127.9711 H        40        0    0.0000
    627 H         194.8939  209.2583  127.0418 H        40        0    0.0000
    628 H         195.9022  209.2249  128.4888 H        40        0    0.0000
    629 H         197.1055  207.4083  127.8368 H        40        0    0.0000
    630 H         197.1734  206.8355  125.4121 H        40        0    0.0000
    631 H         195.6923  207.7441  125.1269 H        40        0    0.0000
    632 H         196.0152  205.3122  127.4752 H        40        0    0.0000
    633 H         194.6695  206.0631  126.6064 H        40        0    0.0000
    634 H         193.7232  205.7904  128.7639 H        40        0    0.0000
    635 H         195.2883  206.9600  130.7484 H        40        0    0.0000
    636 H         196.5294  206.2598  129.7140 H        40        0    0.0000
    637 C         191.5608  204.7520  129.9241 C.3      41        0    0.0000
    638 C         192.7692  205.5865  130.3557 C.3      41        0    0.0000
    639 C         193.7517  204.6180  131.0383 C.3      41        0    0.0000
    640 C         195.2104  204.7872  130.5959 C.3      41        0    0.0000
    641 C         193.2018  203.2251  130.7148 C.3      41        0    0.0000
    642 C         191.6819  203.4135  130.6606 C.3      41        0    0.0000
    643 C         191.0420  203.4334  132.0618 C.3      41        0    0.0000
    644 H         190.6176  205.2745  130.1099 H        41        0    0.0000
    645 H         191.6224  204.5744  128.8427 H        41        0    0.0000
    646 H         193.2047  206.0927  129.4872 H        41        0    0.0000
    647 H         192.4619  206.3650  131.0638 H        41        0    0.0000
    648 H         193.6843  204.7676  132.1254 H        41        0    0.0000
    649 H         195.8700  204.6573  131.4622 H        41        0    0.0000
    650 H         195.4828  204.0123  129.8702 H        41        0    0.0000
    651 H         193.5118  202.4799  131.4546 H        41        0    0.0000
    652 H         193.5640  202.8896  129.7344 H        41        0    0.0000
    653 H         191.2324  202.6086  130.0652 H        41        0    0.0000
    654 H         190.0692  203.9370  132.0454 H        41        0    0.0000
    655 H         191.6832  204.0010  132.7466 H        41        0    0.0000
    656 C         190.3542  202.7367  136.1966 C.3      42        0    0.0000
    657 C         190.1700  203.2295  134.7621 C.3      42        0    0.0000
    658 C         189.9783  201.9785  133.8873 C.3      42        0    0.0000
    659 C         190.8691  201.9982  132.6382 C.3      42        0    0.0000
    660 C         190.2489  200.7963  134.8307 C.3      42        0    0.0000
    661 C         189.8333  201.2974  136.2196 C.3      42        0    0.0000
    662 C         188.3171  201.2435  136.4819 C.3      42        0    0.0000
    663 H         191.4250  202.7372  136.4371 H        42        0    0.0000
    664 H         189.8596  203.3895  136.9227 H        42        0    0.0000
    665 H         191.0273  203.8379  134.4542 H        42        0    0.0000
    666 H         189.2808  203.8671  134.6917 H        42        0    0.0000
    667 H         188.9249  201.9437  133.5752 H        42        0    0.0000
    668 H         190.4574  201.3377  131.8662 H        42        0    0.0000
    669 H         191.8607  201.6060  132.8944 H        42        0    0.0000
    670 H         189.7132  199.8936  134.5215 H        42        0    0.0000
    671 H         191.3199  200.5554  134.8418 H        42        0    0.0000
    672 H         190.3554  200.7279  136.9990 H        42        0    0.0000
    673 H         187.8309  200.4923  135.8502 H        42        0    0.0000
    674 H         187.8708  202.2102  136.2187 H        42        0    0.0000
    675 C         187.9927  200.9551  137.9750 C.3      43        0    0.0000
    676 C         187.0228  199.7840  138.1877 C.3      43        0    0.0000
    677 H         188.9430  200.7030  138.4627 H        43        0    0.0000
    678 H         187.6261  201.8691  138.4567 H        43        0    0.0000
    679 H         186.3375  199.9798  139.0207 H        43        0    0.0000
    680 H         186.4027  199.6876  137.2872 H        43        0    0.0000
    681 C         190.7462  196.8648  136.6705 C.3      44        0    0.0000
    682 C         189.2529  196.8725  136.9664 C.3      44        0    0.0000
    683 C         189.0422  198.2397  137.6252 C.3      44        0    0.0000
    684 C         187.7307  198.4010  138.3999 C.3      44        0    0.0000
    685 C         190.3279  198.5033  138.4331 C.3      44        0    0.0000
    686 C         191.3507  197.4576  137.9475 C.3      44        0    0.0000
    687 C         192.7943  197.9542  137.8225 C.3      44        0    0.0000
    688 H         191.1180  195.8552  136.4697 H        44        0    0.0000
    689 H         190.9523  197.4845  135.7908 H        44        0    0.0000
    690 H         188.6553  196.7577  136.0568 H        44        0    0.0000
    691 H         189.0055  196.0467  137.6424 H        44        0    0.0000
    692 H         189.0200  198.9841  136.8149 H        44        0    0.0000
    693 H         187.0397  197.6026  138.1043 H        44        0    0.0000
    694 H         187.9278  198.2668  139.4701 H        44        0    0.0000
    695 H         190.1811  198.3976  139.5134 H        44        0    0.0000
    696 H         190.6604  199.5335  138.2660 H        44        0    0.0000
    697 H         191.3609  196.6533  138.6986 H        44        0    0.0000
    698 H         193.4007  197.1754  137.3448 H        44        0    0.0000
    699 H         192.8174  198.8245  137.1560 H        44        0    0.0000
    700 C         194.7160  195.6121  141.4540 C.3      45        0    0.0000
    701 C         194.4291  196.1589  140.0531 C.3      45        0    0.0000
    702 C         193.3441  197.2304  140.2229 C.3      45        0    0.0000
    703 C         193.4571  198.3438  139.1778 C.3      45        0    0.0000
    704 C         193.5346  197.6925  141.6714 C.3      45        0    0.0000
    705 C         193.7923  196.3760  142.4118 C.3      45        0    0.0000
    706 C         194.4047  196.5374  143.8060 C.3      45        0    0.0000
    707 H         194.5325  194.5336  141.5080 H        45        0    0.0000
    708 H         195.7722  195.7747  141.7000 H        45        0    0.0000
    709 H         194.0956  195.3663  139.3747 H        45        0    0.0000
    710 H         195.3485  196.5821  139.6311 H        45        0    0.0000
    711 H         192.3629  196.7410  140.1370 H        45        0    0.0000
    712 H         194.5159  198.5648  138.9974 H        45        0    0.0000
    713 H         193.0014  199.2669  139.5549 H        45        0    0.0000
    714 H         192.6502  198.2111  142.0549 H        45        0    0.0000
    715 H         194.3954  198.3673  141.7585 H        45        0    0.0000
    716 H         192.8440  195.8240  142.4863 H        45        0    0.0000
    717 H         194.2174  197.5473  144.1890 H        45        0    0.0000
    718 H         195.4931  196.4216  143.7388 H        45        0    0.0000
    719 C         190.1559  195.5917  144.0186 C.3      46        0    0.0000
    720 C         191.5470  196.1896  143.8741 C.3      46        0    0.0000
    721 C         192.3378  195.5376  145.0153 C.3      46        0    0.0000
    722 C         193.8581  195.4916  144.8162 C.3      46        0    0.0000
    723 C         191.6615  194.1739  145.2655 C.3      46        0    0.0000
    724 C         190.4452  194.1204  144.3230 C.3      46        0    0.0000
    725 C         189.2229  193.3984  144.8955 C.3      46        0    0.0000
    726 H         189.6214  196.0700  144.8485 H        46        0    0.0000
    727 H         189.5598  195.7169  143.1095 H        46        0    0.0000
    728 H         191.9548  195.9340  142.8901 H        46        0    0.0000
    729 H         191.5333  197.2809  143.9575 H        46        0    0.0000
    730 H         192.1618  196.1448  145.9158 H        46        0    0.0000
    731 H         194.3486  195.6492  145.7842 H        46        0    0.0000
    732 H         194.1450  194.4887  144.4785 H        46        0    0.0000
    733 H         191.3519  194.1166  146.3165 H        46        0    0.0000
    734 H         192.3282  193.3242  145.0848 H        46        0    0.0000
    735 H         190.7563  193.6303  143.3889 H        46        0    0.0000
    736 H         188.4496  194.1248  145.1720 H        46        0    0.0000
    737 H         188.7875  192.7543  144.1223 H        46        0    0.0000
    738 C         186.3765  191.9950  148.1220 C.3      47        0    0.0000
    739 C         187.1949  192.8032  147.1248 C.3      47        0    0.0000
    740 C         188.3608  191.8640  146.7988 C.3      47        0    0.0000
    741 C         189.5717  192.5255  146.1337 C.3      47        0    0.0000
    742 C         188.6530  191.1095  148.1105 C.3      47        0    0.0000
    743 C         187.4493  191.3879  149.0320 C.3      47        0    0.0000
    744 C         186.9899  190.2073  149.8931 C.3      47        0    0.0000
    745 H         185.6731  192.6228  148.6777 H        47        0    0.0000
    746 H         185.8021  191.2267  147.5928 H        47        0    0.0000
    747 H         186.6141  193.0623  146.2341 H        47        0    0.0000
    748 H         187.5339  193.7341  147.5925 H        47        0    0.0000
    749 H         187.9799  191.1190  146.0839 H        47        0    0.0000
    750 H         190.0881  193.1510  146.8714 H        47        0    0.0000
    751 H         190.2818  191.7480  145.8277 H        47        0    0.0000
    752 H         189.5737  191.4460  148.5992 H        47        0    0.0000
    753 H         188.7884  190.0436  147.8973 H        47        0    0.0000
    754 H         187.7618  192.1801  149.7291 H        47        0    0.0000
    755 H         186.1559  190.5301  150.5275 H        47        0    0.0000
    756 H         186.6012  189.4171  149.2398 H        47        0    0.0000
    757 C         187.7576  186.3309  152.6756 C.3      48        0    0.0000
    758 C         187.7364  187.1018  151.3645 C.3      48        0    0.0000
    759 C         187.6049  188.5636  151.8102 C.3      48        0    0.0000
    760 C         188.1043  189.6041  150.7998 C.3      48        0    0.0000
    761 C         188.2539  188.6336  153.2079 C.3      48        0    0.0000
    762 C         188.6581  187.1913  153.5645 C.3      48        0    0.0000
    763 C         188.5168  186.8346  155.0463 C.3      48        0    0.0000
    764 H         186.7447  186.2588  153.0901 H        48        0    0.0000
    765 H         188.1488  185.3169  152.5484 H        48        0    0.0000
    766 H         188.6674  186.9189  150.8172 H        48        0    0.0000
    767 H         186.9049  186.7936  150.7229 H        48        0    0.0000
    768 H         186.5318  188.7607  151.9526 H        48        0    0.0000
    769 H         188.5948  190.4206  151.3430 H        48        0    0.0000
    770 H         188.8703  189.1460  150.1629 H        48        0    0.0000
    771 H         187.5209  189.0284  153.9224 H        48        0    0.0000
    772 H         189.1228  189.2990  153.2452 H        48        0    0.0000
    773 H         189.7004  187.0391  153.2485 H        48        0    0.0000
    774 H         187.5828  187.2461  155.4470 H        48        0    0.0000
    775 H         188.4516  185.7452  155.1521 H        48        0    0.0000
    776 C         191.0392  184.9128  157.6550 C.3      49        0    0.0000
    777 C         189.5862  185.3586  157.4708 C.3      49        0    0.0000
    778 C         189.6081  186.8875  157.3660 C.3      49        0    0.0000
    779 C         189.7103  187.3483  155.8997 C.3      49        0    0.0000
    780 C         190.8207  187.2514  158.2321 C.3      49        0    0.0000
    781 C         191.8665  186.1880  157.8877 C.3      49        0    0.0000
    782 C         192.9437  186.0573  158.9705 C.3      49        0    0.0000
    783 H         191.1073  184.2108  158.4938 H        49        0    0.0000
    784 H         191.3972  184.3873  156.7623 H        49        0    0.0000
    785 H         189.0111  185.0648  158.3581 H        49        0    0.0000
    786 H         189.1157  184.8735  156.6095 H        49        0    0.0000
    787 H         188.6933  187.3036  157.8070 H        49        0    0.0000
    788 H         190.6379  186.9586  155.4633 H        49        0    0.0000
    789 H         189.7666  188.4398  155.8293 H        49        0    0.0000
    790 H         190.5435  187.1830  159.2922 H        49        0    0.0000
    791 H         191.1960  188.2640  158.0567 H        49        0    0.0000
    792 H         192.3458  186.4675  156.9390 H        49        0    0.0000
    793 H         193.9280  186.3142  158.5621 H        49        0    0.0000
    794 H         193.0001  185.0143  159.3039 H        49        0    0.0000
    795 C         192.6394  186.9593  160.2010 C.3      50        0    0.0000
    796 C         193.7112  186.8992  161.2988 C.3      50        0    0.0000
    797 H         192.5875  187.9916  159.8321 H        50        0    0.0000
    798 H         191.6467  186.7185  160.5992 H        50        0    0.0000
    799 H         194.5613  186.2783  160.9927 H        50        0    0.0000
    800 H         194.1018  187.9138  161.4492 H        50        0    0.0000
    801 C         195.7645  186.0628  165.4302 C.3      51        0    0.0000
    802 C         195.2572  186.7746  164.1853 C.3      51        0    0.0000
    803 C         194.2405  185.7879  163.5974 C.3      51        0    0.0000
    804 C         193.1734  186.4107  162.6883 C.3      51        0    0.0000
    805 C         193.7001  184.9818  164.7964 C.3      51        0    0.0000
    806 C         194.4886  185.4655  166.0273 C.3      51        0    0.0000
    807 C         194.7896  184.3788  167.0623 C.3      51        0    0.0000
    808 H         196.4779  185.2767  165.1540 H        51        0    0.0000
    809 H         196.2623  186.7502  166.1209 H        51        0    0.0000
    810 H         194.7934  187.7250  164.4705 H        51        0    0.0000
    811 H         196.0667  186.9949  163.4823 H        51        0    0.0000
    812 H         194.8047  185.0798  162.9722 H        51        0    0.0000
    813 H         192.3781  185.6752  162.5178 H        51        0    0.0000
    814 H         192.7110  187.2585  163.2075 H        51        0    0.0000
    815 H         193.8677  183.9133  164.6127 H        51        0    0.0000
    816 H         192.6239  185.1117  164.9513 H        51        0    0.0000
    817 H         193.9184  186.2769  166.5027 H        51        0    0.0000
    818 H         195.8462  184.0902  167.0115 H        51        0    0.0000
    819 H         194.6213  184.7804  168.0687 H        51        0    0.0000
    820 C         192.0032  182.5611  169.4939 C.3      52        0    0.0000
    821 C         193.4976  182.8698  169.3683 C.3      52        0    0.0000
    822 C         193.9818  182.1737  168.0917 C.3      52        0    0.0000
    823 C         193.9040  183.1150  166.8749 C.3      52        0    0.0000
    824 C         193.0491  180.9582  168.0151 C.3      52        0    0.0000
    825 C         191.6790  181.5043  168.4250 C.3      52        0    0.0000
    826 C         190.7270  180.3981  168.8939 C.3      52        0    0.0000
    827 H         191.7816  182.2117  170.5087 H        52        0    0.0000
    828 H         191.4074  183.4654  169.3247 H        52        0    0.0000
    829 H         194.0205  182.4433  170.2338 H        52        0    0.0000
    830 H         193.6945  183.9466  169.3742 H        52        0    0.0000
    831 H         195.0203  181.8424  168.2197 H        52        0    0.0000
    832 H         192.8658  183.4401  166.7367 H        52        0    0.0000
    833 H         194.1948  182.5986  165.9538 H        52        0    0.0000
    834 H         193.3849  180.1969  168.7313 H        52        0    0.0000
    835 H         193.0218  180.4888  167.0272 H        52        0    0.0000
    836 H         191.2353  182.0136  167.5580 H        52        0    0.0000
    837 H         190.3380  179.8400  168.0343 H        52        0    0.0000
    838 H         189.8637  180.8498  169.3968 H        52        0    0.0000
    839 C         191.4221  179.4162  169.8802 C.3      53        0    0.0000
    840 C         190.4940  178.8700  170.9747 C.3      53        0    0.0000
    841 H         192.2306  179.9761  170.3676 H        53        0    0.0000
    842 H         191.8979  178.6037  169.3186 H        53        0    0.0000
    843 H         190.0155  179.7233  171.4722 H        53        0    0.0000
    844 H         189.6870  178.2635  170.5472 H        53        0    0.0000
    845 C         191.5593  174.4149  171.1449 C.3      54        0    0.0000
    846 C         191.6234  175.8963  170.8062 C.3      54        0    0.0000
    847 C         190.9438  176.5528  172.0096 C.3      54        0    0.0000
    848 C         191.2351  178.0534  172.0894 C.3      54        0    0.0000
    849 C         191.4531  175.7333  173.2095 C.3      54        0    0.0000
    850 C         191.9053  174.3734  172.6388 C.3      54        0    0.0000
    851 C         191.3960  173.1400  173.3952 C.3      54        0    0.0000
    852 H         192.2627  173.8280  170.5460 H        54        0    0.0000
    853 H         190.5512  174.0366  170.9437 H        54        0    0.0000
    854 H         192.6674  176.2203  170.7157 H        54        0    0.0000
    855 H         191.1111  176.1242  169.8664 H        54        0    0.0000
    856 H         189.8591  176.3940  171.9215 H        54        0    0.0000
    857 H         190.9481  178.4426  173.0734 H        54        0    0.0000
    858 H         192.3143  178.2188  171.9882 H        54        0    0.0000
    859 H         192.3106  176.2222  173.6886 H        54        0    0.0000
    860 H         190.6738  175.6409  173.9733 H        54        0    0.0000
    861 H         193.0027  174.3511  172.7138 H        54        0    0.0000
    862 H         192.0321  172.2813  173.1498 H        54        0    0.0000
    863 H         190.3878  172.8958  173.0396 H        54        0    0.0000
    864 C         191.3764  176.9672  175.9202 C.3      55        0    0.0000
    865 C         191.1286  175.8886  174.8768 C.3      55        0    0.0000
    866 C         191.8573  174.6648  175.4463 C.3      55        0    0.0000
    867 C         191.3515  173.3075  174.9413 C.3      55        0    0.0000
    868 C         191.8452  174.8475  176.9780 C.3      55        0    0.0000
    869 C         191.1905  176.2162  177.2402 C.3      55        0    0.0000
    870 C         191.7711  176.9861  178.4290 C.3      55        0    0.0000
    871 H         192.3970  177.3580  175.8274 H        55        0    0.0000
    872 H         190.6784  177.8038  175.8183 H        55        0    0.0000
    873 H         190.0514  175.7179  174.7754 H        55        0    0.0000
    874 H         191.5161  176.1744  173.8938 H        55        0    0.0000
    875 H         192.9082  174.7407  175.1297 H        55        0    0.0000
    876 H         191.9521  172.5118  175.3978 H        55        0    0.0000
    877 H         190.3207  173.1591  175.2845 H        55        0    0.0000
    878 H         192.8776  174.8240  177.3483 H        55        0    0.0000
    879 H         191.3027  174.0530  177.5011 H        55        0    0.0000
    880 H         190.1137  176.0570  177.3972 H        55        0    0.0000
    881 H         192.7416  177.4203  178.1610 H        55        0    0.0000
    882 H         191.1088  177.8245  178.6759 H        55        0    0.0000
    883 C         191.9399  176.0951  179.6916 C.3      56        0    0.0000
    884 C         192.0790  176.8867  180.9998 C.3      56        0    0.0000
    885 H         192.8583  175.5119  179.5473 H        56        0    0.0000
    886 H         191.1161  175.3738  179.7475 H        56        0    0.0000
    887 H         193.0165  177.4557  180.9553 H        56        0    0.0000
    888 H         191.2719  177.6206  181.1097 H        56        0    0.0000
    889 C         194.6418  173.2747  181.8119 C.3      57        0    0.0000
    890 C         193.8487  174.4051  181.1516 C.3      57        0    0.0000
    891 C         192.5359  174.5424  181.9434 C.3      57        0    0.0000
    892 C         192.1550  175.9887  182.2829 C.3      57        0    0.0000
    893 C         192.7538  173.6872  183.1957 C.3      57        0    0.0000
    894 C         193.6562  172.5405  182.7275 C.3      57        0    0.0000
    895 C         192.8690  171.4314  182.0040 C.3      57        0    0.0000
    896 H         195.1225  172.6281  181.0716 H        57        0    0.0000
    897 H         195.4411  173.7139  182.4225 H        57        0    0.0000
    898 H         194.4417  175.3263  181.1477 H        57        0    0.0000
    899 H         193.6288  174.1570  180.1067 H        57        0    0.0000
    900 H         191.7282  174.0850  181.3541 H        57        0    0.0000
    901 H         191.1748  176.0003  182.7743 H        57        0    0.0000
    902 H         192.8715  176.4167  182.9934 H        57        0    0.0000
    903 H         191.8085  173.3372  183.6229 H        57        0    0.0000
    904 H         193.2724  174.2681  183.9695 H        57        0    0.0000
    905 H         194.1832  172.1116  183.5892 H        57        0    0.0000
    906 H         193.5148  170.5791  181.7652 H        57        0    0.0000
    907 H         192.4869  171.8182  181.0518 H        57        0    0.0000
    908 C         191.6575  170.9388  182.8475 C.3      58        0    0.0000
    909 C         191.6492  169.4248  183.1025 C.3      58        0    0.0000
    910 H         191.7196  171.4472  183.8182 H        58        0    0.0000
    911 H         190.7227  171.2696  182.3798 H        58        0    0.0000
    912 H         190.6341  169.0582  183.2952 H        58        0    0.0000
    913 H         191.9957  168.9238  182.1895 H        58        0    0.0000
    914 C         193.7579  172.0420  184.2371 C.3      59        0    0.0000
    915 C         193.9666  170.8699  183.2744 C.3      59        0    0.0000
    916 C         194.0030  169.6007  184.1326 C.3      59        0    0.0000
    917 C         192.6042  168.9683  184.2594 C.3      59        0    0.0000
    918 C         194.5865  170.1217  185.4521 C.3      59        0    0.0000
    919 C         193.9057  171.4770  185.6596 C.3      59        0    0.0000
    920 C         194.6846  172.3793  186.6235 C.3      59        0    0.0000
    921 H         194.4871  172.8315  184.0224 H        59        0    0.0000
    922 H         192.7606  172.4768  184.1045 H        59        0    0.0000
    923 H         194.9335  170.9942  182.7706 H        59        0    0.0000
    924 H         193.2001  170.8411  182.4932 H        59        0    0.0000
    925 H         194.6856  168.8677  183.6838 H        59        0    0.0000
    926 H         192.1571  169.2711  185.2140 H        59        0    0.0000
    927 H         192.6624  167.8748  184.2749 H        59        0    0.0000
    928 H         195.6710  170.2537  185.3427 H        59        0    0.0000
    929 H         194.4225  169.4492  186.2993 H        59        0    0.0000
    930 H         192.9007  171.3011  186.0683 H        59        0    0.0000
    931 H         194.3048  172.2634  187.6453 H        59        0    0.0000
    932 H         194.5312  173.4284  186.3443 H        59        0    0.0000
    933 C         196.7067  172.6295  190.3118 C.3      60        0    0.0000
    934 C         196.2571  173.1489  188.9548 C.3      60        0    0.0000
    935 C         196.8982  172.1680  187.9650 C.3      60        0    0.0000
    936 C         196.2097  172.0733  186.5975 C.3      60        0    0.0000
    937 C         197.0375  170.8354  188.7296 C.3      60        0    0.0000
    938 C         196.5567  171.1139  190.1655 C.3      60        0    0.0000
    939 C         197.3159  170.3510  191.2540 C.3      60        0    0.0000
    940 H         197.7513  172.9078  190.4978 H        60        0    0.0000
    941 H         196.0953  173.0292  191.1266 H        60        0    0.0000
    942 H         195.1631  173.1340  188.9013 H        60        0    0.0000
    943 H         196.5866  174.1783  188.7817 H        60        0    0.0000
    944 H         197.9201  172.5276  187.7728 H        60        0    0.0000
    945 H         196.6958  172.7713  185.9055 H        60        0    0.0000
    946 H         196.3627  171.0677  186.1883 H        60        0    0.0000
    947 H         198.0897  170.5249  188.7166 H        60        0    0.0000
    948 H         196.4610  170.0201  188.2802 H        60        0    0.0000
    949 H         195.4867  170.8667  190.2230 H        60        0    0.0000
    950 H         198.3965  170.4241  191.0835 H        60        0    0.0000
    951 H         197.1188  170.8165  192.2271 H        60        0    0.0000
    952 C         193.3719  168.0828  192.3861 C.3      61        0    0.0000
    953 C         194.4029  169.0167  191.7470 C.3      61        0    0.0000
    954 C         195.7672  168.6058  192.3161 C.3      61        0    0.0000
    955 C         196.9090  168.8524  191.3261 C.3      61        0    0.0000
    956 C         195.5578  167.1362  192.6960 C.3      61        0    0.0000
    957 C         194.1561  167.1466  193.3149 C.3      61        0    0.0000
    958 C         193.5027  165.7673  193.4378 C.3      61        0    0.0000
    959 H         192.6142  168.6444  192.9432 H        61        0    0.0000
    960 H         192.8494  167.5236  191.6007 H        61        0    0.0000
    961 H         194.1844  170.0666  191.9699 H        61        0    0.0000
    962 H         194.3721  168.9029  190.6567 H        61        0    0.0000
    963 H         195.9434  169.1839  193.2350 H        61        0    0.0000
    964 H         196.5978  168.5271  190.3262 H        61        0    0.0000
    965 H         197.7838  168.2495  191.5966 H        61        0    0.0000
    966 H         196.3150  166.7849  193.4042 H        61        0    0.0000
    967 H         195.5905  166.4923  191.8081 H        61        0    0.0000
    968 H         194.2142  167.6178  194.3069 H        61        0    0.0000
    969 H         193.2075  165.3968  192.4491 H        61        0    0.0000
    970 H         192.5839  165.8535  194.0302 H        61        0    0.0000
    971 C         194.4356  164.7302  194.1212 C.3      62        0    0.0000
    972 C         194.7065  163.4799  193.2722 C.3      62        0    0.0000
    973 H         195.3937  165.2349  194.2994 H        62        0    0.0000
    974 H         194.0336  164.4642  195.1059 H        62        0    0.0000
    975 H         193.9028  162.7422  193.3807 H        62        0    0.0000
    976 H         194.7158  163.7806  192.2167 H        62        0    0.0000
    977 C         197.6071  165.0067  196.0724 C.3      63        0    0.0000
    978 C         196.3048  164.4965  195.4573 C.3      63        0    0.0000
    979 C         196.5706  163.0529  194.9966 C.3      63        0    0.0000
    980 C         196.0898  162.8007  193.5615 C.3      63        0    0.0000
    981 C         198.0806  162.8506  195.1956 C.3      63        0    0.0000
    982 C         198.4489  163.7637  196.3719 C.3      63        0    0.0000
    983 C         198.1218  163.1729  197.7555 C.3      63        0    0.0000
    984 H         198.1295  165.6272  195.3330 H        63        0    0.0000
    985 H         197.4290  165.6333  196.9520 H        63        0    0.0000
    986 H         195.9853  165.1529  194.6404 H        63        0    0.0000
    987 H         195.5043  164.5019  196.2065 H        63        0    0.0000
    988 H         196.0338  162.3775  195.6778 H        63        0    0.0000
    989 H         196.0203  161.7242  193.3667 H        63        0    0.0000
    990 H         196.8274  163.2030  192.8566 H        63        0    0.0000
    991 H         198.3345  161.8006  195.3708 H        63        0    0.0000
    992 H         198.6295  163.1768  194.3025 H        63        0    0.0000
    993 H         199.5151  164.0210  196.3316 H        63        0    0.0000
    994 H         197.1306  163.4888  198.0983 H        63        0    0.0000
    995 H         198.8427  163.5526  198.4896 H        63        0    0.0000
    996 C         200.5652  160.3274  195.1201 C.3      64        0    0.0000
    997 C         200.0166  161.4688  195.9803 C.3      64        0    0.0000
    998 C         198.5995  161.0523  196.3957 C.3      64        0    0.0000
    999 C         198.2027  161.6201  197.7613 C.3      64        0    0.0000
   1000 C         198.6534  159.5223  196.3315 C.3      64        0    0.0000
   1001 C         199.4567  159.2688  195.0516 C.3      64        0    0.0000
   1002 C         200.0151  157.8492  194.9194 C.3      64        0    0.0000
   1003 H         200.8374  160.6765  194.1183 H        64        0    0.0000
   1004 H         201.4750  159.9265  195.5828 H        64        0    0.0000
   1005 H         200.0019  162.4147  195.4282 H        64        0    0.0000
   1006 H         200.6648  161.6122  196.8531 H        64        0    0.0000
   1007 H         197.8981  161.4111  195.6283 H        64        0    0.0000
   1008 H         198.9423  161.3122  198.5100 H        64        0    0.0000
   1009 H         197.2391  161.2056  198.0800 H        64        0    0.0000
   1010 H         197.6535  159.0796  196.2812 H        64        0    0.0000
   1011 H         199.1697  159.1102  197.2076 H        64        0    0.0000
   1012 H         198.8182  159.4969  194.1857 H        64        0    0.0000
   1013 H         201.0286  157.7990  195.3342 H        64        0    0.0000
   1014 H         200.0952  157.5891  193.8571 H        64        0    0.0000
   1015 C         199.1168  156.7932  195.6201 C.3      65        0    0.0000
   1016 C         199.4184  155.3453  195.2077 C.3      65        0    0.0000
   1017 H         198.0812  157.0195  195.3358 H        65        0    0.0000
   1018 H         199.1780  156.9192  196.7074 H        65        0    0.0000
   1019 H         199.4119  155.2952  194.1113 H        65        0    0.0000
   1020 H         200.4208  155.0394  195.5295 H        65        0    0.0000
   1021 C         198.7662  153.5520  199.3258 C.3      66        0    0.0000
   1022 C         199.3384  154.2712  198.1017 C.3      66        0    0.0000
   1023 C         198.9052  153.4562  196.8699 C.3      66        0    0.0000
   1024 C         198.3604  154.3049  195.7146 C.3      66        0    0.0000
   1025 C         197.8647  152.4703  197.4109 C.3      66        0    0.0000
   1026 C         198.3276  152.1662  198.8397 C.3      66        0    0.0000
   1027 C         199.4609  151.1236  198.8808 C.3      66        0    0.0000
   1028 H         199.4818  153.5237  200.1530 H        66        0    0.0000
   1029 H         197.8863  154.1039  199.6804 H        66        0    0.0000
   1030 H         198.9810  155.3065  198.0743 H        66        0    0.0000
   1031 H         200.4326  154.3078  198.1577 H        66        0    0.0000
   1032 H         199.7713  152.8785  196.5166 H        66        0    0.0000
   1033 H         198.0890  153.6491  194.8788 H        66        0    0.0000
   1034 H         197.4453  154.8253  196.0201 H        66        0    0.0000
   1035 H         197.7879  151.5727  196.7887 H        66        0    0.0000
   1036 H         196.8727  152.9395  197.4398 H        66        0    0.0000
   1037 H         197.4778  151.8055  199.4330 H        66        0    0.0000
   1038 H         200.1557  151.3265  199.7033 H        66        0    0.0000
   1039 H         200.0413  151.1802  197.9522 H        66        0    0.0000
   1040 C         201.3984  146.9928  198.7409 C.3      67        0    0.0000
   1041 C         201.1637  148.5018  198.7890 C.3      67        0    0.0000
   1042 C         199.9235  148.7272  199.6711 C.3      67        0    0.0000
   1043 C         198.9085  149.6753  199.0189 C.3      67        0    0.0000
   1044 C         199.3771  147.3176  199.9453 C.3      67        0    0.0000
   1045 C         200.6091  146.4043  199.9132 C.3      67        0    0.0000
   1046 C         201.4318  146.4090  201.2145 C.3      67        0    0.0000
   1047 H         200.9931  146.6005  197.7994 H        67        0    0.0000
   1048 H         202.4633  146.7409  198.7641 H        67        0    0.0000
   1049 H         201.0453  148.9024  197.7762 H        67        0    0.0000
   1050 H         202.0289  149.0058  199.2355 H        67        0    0.0000
   1051 H         200.2610  149.1634  200.6219 H        67        0    0.0000
   1052 H         197.9758  149.6894  199.5948 H        67        0    0.0000
   1053 H         198.6569  149.3036  198.0183 H        67        0    0.0000
   1054 H         198.8290  147.2667  200.8912 H        67        0    0.0000
   1055 H         198.6854  147.0155  199.1481 H        67        0    0.0000
   1056 H         200.3106  145.3747  199.6779 H        67        0    0.0000
   1057 H         201.5513  147.4251  201.6055 H        67        0    0.0000
   1058 H         202.4407  146.0334  201.0049 H        67        0    0.0000
   1059 C         200.7994  145.5027  202.3084 C.3      68        0    0.0000
   1060 C         200.8161  146.1183  203.7149 C.3      68        0    0.0000
   1061 H         199.7528  145.3412  202.0199 H        68        0    0.0000
   1062 H         201.2828  144.5188  202.2979 H        68        0    0.0000
   1063 H         201.8405  146.3163  204.0515 H        68        0    0.0000
   1064 H         200.3081  147.0901  203.6673 H        68        0    0.0000
   1065 C         199.3613  144.1010  207.7815 C.3      69        0    0.0000
   1066 C         199.5759  145.5281  207.2702 C.3      69        0    0.0000
   1067 C         200.6672  145.4483  206.1971 C.3      69        0    0.0000
   1068 C         200.0614  145.2654  204.7927 C.3      69        0    0.0000
   1069 C         201.5107  144.2633  206.6843 C.3      69        0    0.0000
   1070 C         200.4822  143.2409  207.1744 C.3      69        0    0.0000
   1071 C         201.0914  142.2179  208.1398 C.3      69        0    0.0000
   1072 H         199.3757  144.0945  208.8773 H        69        0    0.0000
   1073 H         198.3819  143.7223  207.4677 H        69        0    0.0000
   1074 H         199.9299  146.1517  208.1009 H        69        0    0.0000
   1075 H         198.6454  145.9765  206.9072 H        69        0    0.0000
   1076 H         201.2681  146.3667  206.2087 H        69        0    0.0000
   1077 H         199.0117  145.5827  204.8090 H        69        0    0.0000
   1078 H         200.0646  144.2121  204.4927 H        69        0    0.0000
   1079 H         202.1490  144.5893  207.5159 H        69        0    0.0000
   1080 H         202.1653  143.8455  205.9135 H        69        0    0.0000
   1081 H         200.0771  142.7107  206.3010 H        69        0    0.0000
   1082 H         201.0018  141.2055  207.7290 H        69        0    0.0000
   1083 H         200.5320  142.2291  209.0827 H        69        0    0.0000
   1084 C         203.9013  139.4264  210.2041 C.3      70        0    0.0000
   1085 C         203.7447  140.2646  208.9430 C.3      70        0    0.0000
   1086 C         203.2219  141.5999  209.4830 C.3      70        0    0.0000
   1087 C         202.5860  142.5263  208.4421 C.3      70        0    0.0000
   1088 C         202.3242  141.2299  210.6799 C.3      70        0    0.0000
   1089 C         202.6272  139.7510  210.9907 C.3      70        0    0.0000
   1090 C         202.6600  139.3818  212.4769 C.3      70        0    0.0000
   1091 H         203.9841  138.3589  209.9777 H        70        0    0.0000
   1092 H         204.8062  139.7315  210.7411 H        70        0    0.0000
   1093 H         204.6927  140.3801  208.4085 H        70        0    0.0000
   1094 H         203.0288  139.7850  208.2664 H        70        0    0.0000
   1095 H         204.0889  142.1394  209.8932 H        70        0    0.0000
   1096 H         202.6687  143.5635  208.7879 H        70        0    0.0000
   1097 H         203.1553  142.4595  207.5074 H        70        0    0.0000
   1098 H         201.2568  141.3473  210.4639 H        70        0    0.0000
   1099 H         202.5438  141.8955  211.5217 H        70        0    0.0000
   1100 H         201.8151  139.1608  210.5400 H        70        0    0.0000
   1101 H         202.9487  140.2651  213.0589 H        70        0    0.0000
   1102 H         201.6488  139.1080  212.8006 H        70        0    0.0000
   1103 C         203.6306  138.2136  212.8252 C.3      71        0    0.0000
   1104 C         203.1281  137.2999  213.9521 C.3      71        0    0.0000
   1105 H         204.5728  138.6715  213.1527 H        71        0    0.0000
   1106 H         203.8591  137.6405  211.9190 H        71        0    0.0000
   1107 H         203.8271  137.3821  214.7943 H        71        0    0.0000
   1108 H         202.1497  137.6263  214.3239 H        71        0    0.0000
   1109 C         203.0658  135.7825  213.5621 C.3      72        0    0.0000
   1110 C         202.7439  134.8488  214.7377 C.3      72        0    0.0000
   1111 H         204.0572  135.5138  213.1755 H        72        0    0.0000
   1112 H         202.3587  135.6421  212.7360 H        72        0    0.0000
   1113 H         203.3607  135.1532  215.5929 H        72        0    0.0000
   1114 H         201.6988  134.9505  215.0532 H        72        0    0.0000
   1115 C         203.1448  130.4216  216.8486 C.3      73        0    0.0000
   1116 C         202.3941  131.5589  216.1510 C.3      73        0    0.0000
   1117 C         203.4568  132.5839  215.7336 C.3      73        0    0.0000
   1118 C         203.0677  133.3400  214.4601 C.3      73        0    0.0000
   1119 C         204.7279  131.7372  215.6102 C.3      73        0    0.0000
   1120 C         204.6298  130.8068  216.8237 C.3      73        0    0.0000
   1121 C         205.5477  129.5827  216.7651 C.3      73        0    0.0000
   1122 H         202.7927  130.2808  217.8762 H        73        0    0.0000
   1123 H         202.9649  129.4823  216.3120 H        73        0    0.0000
   1124 H         201.6496  132.0128  216.8138 H        73        0    0.0000
   1125 H         201.8562  131.1619  215.2817 H        73        0    0.0000
   1126 H         203.5889  133.2965  216.5607 H        73        0    0.0000
   1127 H         202.1824  132.8693  214.0159 H        73        0    0.0000
   1128 H         203.8698  133.2698  213.7161 H        73        0    0.0000
   1129 H         205.6331  132.3520  215.6383 H        73        0    0.0000
   1130 H         204.7289  131.1639  214.6747 H        73        0    0.0000
   1131 H         204.8479  131.3892  217.7308 H        73        0    0.0000
   1132 H         205.8406  129.3762  215.7291 H        73        0    0.0000
   1133 H         204.9995  128.7018  217.1201 H        73        0    0.0000
   1134 C         207.1186  126.1169  218.6904 C.3      74        0    0.0000
   1135 C         206.8353  127.1665  217.6248 C.3      74        0    0.0000
   1136 C         207.3243  128.4613  218.2821 C.3      74        0    0.0000
   1137 C         206.8211  129.7566  217.6376 C.3      74        0    0.0000
   1138 C         207.0087  128.2993  219.7820 C.3      74        0    0.0000
   1139 C         206.6677  126.8095  219.9807 C.3      74        0    0.0000
   1140 C         207.1839  126.1813  221.2789 C.3      74        0    0.0000
   1141 H         206.5673  125.1893  218.5073 H        74        0    0.0000
   1142 H         208.1882  125.8804  218.7017 H        74        0    0.0000
   1143 H         207.3646  126.9541  216.6908 H        74        0    0.0000
   1144 H         205.7616  127.1940  217.4088 H        74        0    0.0000
   1145 H         208.4208  128.4717  218.1894 H        74        0    0.0000
   1146 H         206.6111  130.4902  218.4250 H        74        0    0.0000
   1147 H         207.6185  130.1810  217.0162 H        74        0    0.0000
   1148 H         206.1635  128.9149  220.1081 H        74        0    0.0000
   1149 H         207.8719  128.6212  220.3745 H        74        0    0.0000
   1150 H         205.5701  126.7383  220.0140 H        74        0    0.0000
   1151 H         206.3292  125.9133  221.9113 H        74        0    0.0000
   1152 H         207.7059  125.2467  221.0420 H        74        0    0.0000
   1153 C         208.1436  127.0974  222.0961 C.3      75        0    0.0000
   1154 C         208.4778  126.5603  223.4951 C.3      75        0    0.0000
   1155 H         209.0786  127.1659  221.5254 H        75        0    0.0000
   1156 H         207.7320  128.1123  222.1464 H        75        0    0.0000
   1157 H         207.5724  126.2519  224.0309 H        75        0    0.0000
   1158 H         209.0938  125.6597  223.3759 H        75        0    0.0000
   1159 C         211.4215  125.4808  226.5402 C.3      76        0    0.0000
   1160 C         211.1440  126.8887  226.0158 C.3      76        0    0.0000
   1161 C         209.6291  126.9739  225.7611 C.3      76        0    0.0000
   1162 C         209.3017  127.5582  224.3807 C.3      76        0    0.0000
   1163 C         209.1159  125.5412  225.9723 C.3      76        0    0.0000
   1164 C         210.0713  124.9285  227.0043 C.3      76        0    0.0000
   1165 C         209.7637  125.3225  228.4605 C.3      76        0    0.0000
   1166 H         211.8002  124.8633  225.7157 H        76        0    0.0000
   1167 H         212.1853  125.4766  227.3242 H        76        0    0.0000
   1168 H         211.7392  127.0860  225.1175 H        76        0    0.0000
   1169 H         211.4335  127.6357  226.7643 H        76        0    0.0000
   1170 H         209.1929  127.6201  226.5359 H        76        0    0.0000
   1171 H         210.2231  127.8408  223.8584 H        76        0    0.0000
   1172 H         208.7146  128.4760  224.5060 H        76        0    0.0000
   1173 H         208.0694  125.5230  226.2917 H        76        0    0.0000
   1174 H         209.1840  124.9705  225.0369 H        76        0    0.0000
   1175 H         210.0701  123.8344  226.9179 H        76        0    0.0000
   1176 H         210.2345  126.2762  228.7220 H        76        0    0.0000
   1177 H         210.1872  124.5688  229.1354 H        76        0    0.0000
   1178 C         207.9093  124.8348  225.0800 C.3      77        0    0.0000
   1179 C         207.8403  125.8517  226.2220 C.3      77        0    0.0000
   1180 C         207.4153  125.0728  227.4797 C.3      77        0    0.0000
   1181 C         208.2350  125.4062  228.7323 C.3      77        0    0.0000
   1182 C         207.5386  123.5999  227.0768 C.3      77        0    0.0000
   1183 C         207.1917  123.5779  225.5842 C.3      77        0    0.0000
   1184 C         205.6720  123.6069  225.3337 C.3      77        0    0.0000
   1185 H         207.4949  125.2371  224.1507 H        77        0    0.0000
   1186 H         208.9622  124.5939  224.8847 H        77        0    0.0000
   1187 H         208.8084  126.3515  226.3377 H        77        0    0.0000
   1188 H         207.0998  126.6281  225.9972 H        77        0    0.0000
   1189 H         206.3545  125.2856  227.6751 H        77        0    0.0000
   1190 H         207.9956  126.4240  229.0628 H        77        0    0.0000
   1191 H         207.9672  124.7337  229.5554 H        77        0    0.0000
   1192 H         206.8860  122.9552  227.6744 H        77        0    0.0000
   1193 H         208.5695  123.2502  227.2179 H        77        0    0.0000
   1194 H         207.6214  122.6813  225.1198 H        77        0    0.0000
   1195 H         205.2440  124.5771  225.6090 H        77        0    0.0000
   1196 H         205.1849  122.8534  225.9640 H        77        0    0.0000
   1197 H         205.4292  123.3876  224.2940 H        77        0    0.0000
   1198 H         242.9930  112.0678  146.1125 H         0        0    0.0000
@<TRIPOS>BOND
     1     1     2      1
     2     1     6      1
     3     1     8      1
     4     1     9      1
     5     2     3      1
     6     2    10      1
     7     2    11      1
     8     3     4      1
     9     3     5      1
    10     3    12      1
    11     4    13      1
    12     4    14      1
    13     4  1198      H
    14     5     6      1
    15     5    15      1
    16     5    16      1
    17     6     7      1
    18     6    17      1
    19     7    18      1
    20     7    19      1
    21     7    23      1
    22    20    21      1
    23    20    25      1
    24    20    27      1
    25    20    28      1
    26    21    22      1
    27    21    29      1
    28    21    30      1
    29    22    23      1
    30    22    24      1
    31    22    31      1
    32    23    32      1
    33    23    33      1
    34    24    25      1
    35    24    34      1
    36    24    35      1
    37    25    26      1
    38    25    36      1
    39    26    37      1
    40    26    38      1
    41    26    39      1
    42    39    40      1
    43    39    41      1
    44    39    42      1
    45    40    43      1
    46    40    44      1
    47    40    48      1
    48    45    46      1
    49    45    50      1
    50    45    52      1
    51    45    53      1
    52    46    47      1
    53    46    54      1
    54    46    55      1
    55    47    48      1
    56    47    49      1
    57    47    56      1
    58    48    57      1
    59    48    58      1
    60    49    50      1
    61    49    59      1
    62    49    60      1
    63    50    51      1
    64    50    61      1
    65    51    62      1
    66    51    63      1
    67    51    64      1
    68    64    65      1
    69    64    66      1
    70    64    67      1
    71    65    68      1
    72    65    69      1
    73    65    73      1
    74    70    71      1
    75    70    75      1
    76    70    77      1
    77    70    78      1
    78    71    72      1
    79    71    79      1
    80    71    80      1
    81    72    73      1
    82    72    74      1
    83    72    81      1
    84    73    82      1
    85    73    83      1
    86    74    75      1
    87    74    84      1
    88    74    85      1
    89    75    76      1
    90    75    86      1
    91    76    87      1
    92    76    88      1
    93    76    92      1
    94    89    90      1
    95    89    94      1
    96    89    96      1
    97    89    97      1
    98    90    91      1
    99    90    98      1
   100    90    99      1
   101    91    92      1
   102    91    93      1
   103    91   100      1
   104    92   101      1
   105    92   102      1
   106    93    94      1
   107    93   103      1
   108    93   104      1
   109    94    95      1
   110    94   105      1
   111    95   106      1
   112    95   107      1
   113    95   108      1
   114   108   109      1
   115   108   110      1
   116   108   111      1
   117   109   112      1
   118   109   113      1
   119   109   114      1
   120   114   115      1
   121   114   116      1
   122   114   117      1
   123   115   118      1
   124   115   119      1
   125   115   120      1
   126   120   121      1
   127   120   122      1
   128   120   123      1
   129   121   124      1
   130   121   125      1
   131   121   126      1
   132   126   127      1
   133   126   128      1
   134   126   129      1
   135   127   130      1
   136   127   131      1
   137   127   135      1
   138   132   133      1
   139   132   137      1
   140   132   139      1
   141   132   140      1
   142   133   134      1
   143   133   141      1
   144   133   142      1
   145   134   135      1
   146   134   136      1
   147   134   143      1
   148   135   144      1
   149   135   145      1
   150   136   137      1
   151   136   146      1
   152   136   147      1
   153   137   138      1
   154   137   148      1
   155   138   149      1
   156   138   150      1
   157   138   154      1
   158   151   152      1
   159   151   156      1
   160   151   158      1
   161   151   159      1
   162   152   153      1
   163   152   160      1
   164   152   161      1
   165   153   154      1
   166   153   155      1
   167   153   162      1
   168   154   163      1
   169   154   164      1
   170   155   156      1
   171   155   165      1
   172   155   166      1
   173   156   157      1
   174   156   167      1
   175   157   168      1
   176   157   169      1
   177   157   170      1
   178   170   171      1
   179   170   172      1
   180   170   173      1
   181   171   174      1
   182   171   175      1
   183   171   179      1
   184   176   177      1
   185   176   181      1
   186   176   183      1
   187   176   184      1
   188   177   178      1
   189   177   185      1
   190   177   186      1
   191   178   179      1
   192   178   180      1
   193   178   187      1
   194   179   188      1
   195   179   189      1
   196   180   181      1
   197   180   190      1
   198   180   191      1
   199   181   182      1
   200   181   192      1
   201   182   193      1
   202   182   194      1
   203   182   195      1
   204   195   196      1
   205   195   197      1
   206   195   198      1
   207   196   199      1
   208   196   200      1
   209   196   204      1
   210   201   202      1
   211   201   206      1
   212   201   208      1
   213   201   209      1
   214   202   203      1
   215   202   210      1
   216   202   211      1
   217   203   204      1
   218   203   205      1
   219   203   212      1
   220   204   213      1
   221   204   214      1
   222   205   206      1
   223   205   215      1
   224   205   216      1
   225   206   207      1
   226   206   217      1
   227   207   218      1
   228   207   219      1
   229   207   223      1
   230   220   221      1
   231   220   225      1
   232   220   227      1
   233   220   228      1
   234   221   222      1
   235   221   229      1
   236   221   230      1
   237   222   223      1
   238   222   224      1
   239   222   231      1
   240   223   232      1
   241   223   233      1
   242   224   225      1
   243   224   234      1
   244   224   235      1
   245   225   226      1
   246   225   236      1
   247   226   237      1
   248   226   238      1
   249   226   242      1
   250   239   240      1
   251   239   244      1
   252   239   246      1
   253   239   247      1
   254   240   241      1
   255   240   248      1
   256   240   249      1
   257   241   242      1
   258   241   243      1
   259   241   250      1
   260   242   251      1
   261   242   252      1
   262   243   244      1
   263   243   253      1
   264   243   254      1
   265   244   245      1
   266   244   255      1
   267   245   256      1
   268   245   257      1
   269   245   261      1
   270   258   259      1
   271   258   263      1
   272   258   265      1
   273   258   266      1
   274   259   260      1
   275   259   267      1
   276   259   268      1
   277   260   261      1
   278   260   262      1
   279   260   269      1
   280   261   270      1
   281   261   271      1
   282   262   263      1
   283   262   272      1
   284   262   273      1
   285   263   264      1
   286   263   274      1
   287   264   275      1
   288   264   276      1
   289   264   277      1
   290   277   278      1
   291   277   279      1
   292   277   280      1
   293   278   281      1
   294   278   282      1
   295   278   286      1
   296   283   284      1
   297   283   288      1
   298   283   290      1
   299   283   291      1
   300   284   285      1
   301   284   292      1
   302   284   293      1
   303   285   286      1
   304   285   287      1
   305   285   294      1
   306   286   295      1
   307   286   296      1
   308   287   288      1
   309   287   297      1
   310   287   298      1
   311   288   289      1
   312   288   299      1
   313   289   300      1
   314   289   301      1
   315   289   305      1
   316   302   303      1
   317   302   307      1
   318   302   309      1
   319   302   310      1
   320   303   304      1
   321   303   311      1
   322   303   312      1
   323   304   305      1
   324   304   306      1
   325   304   313      1
   326   305   314      1
   327   305   315      1
   328   306   307      1
   329   306   316      1
   330   306   317      1
   331   307   308      1
   332   307   318      1
   333   308   319      1
   334   308   320      1
   335   308   324      1
   336   321   322      1
   337   321   326      1
   338   321   328      1
   339   321   329      1
   340   322   323      1
   341   322   330      1
   342   322   331      1
   343   323   324      1
   344   323   325      1
   345   323   332      1
   346   324   333      1
   347   324   334      1
   348   325   326      1
   349   325   335      1
   350   325   336      1
   351   326   327      1
   352   326   337      1
   353   327   338      1
   354   327   339      1
   355   327   343      1
   356   340   341      1
   357   340   345      1
   358   340   347      1
   359   340   348      1
   360   341   342      1
   361   341   349      1
   362   341   350      1
   363   342   343      1
   364   342   344      1
   365   342   351      1
   366   343   352      1
   367   343   353      1
   368   344   345      1
   369   344   354      1
   370   344   355      1
   371   345   346      1
   372   345   356      1
   373   346   357      1
   374   346   358      1
   375   346   362      1
   376   359   360      1
   377   359   364      1
   378   359   366      1
   379   359   367      1
   380   360   361      1
   381   360   368      1
   382   360   369      1
   383   361   362      1
   384   361   363      1
   385   361   370      1
   386   362   371      1
   387   362   372      1
   388   363   364      1
   389   363   373      1
   390   363   374      1
   391   364   365      1
   392   364   375      1
   393   365   376      1
   394   365   377      1
   395   365   381      1
   396   378   379      1
   397   378   383      1
   398   378   385      1
   399   378   386      1
   400   379   380      1
   401   379   387      1
   402   379   388      1
   403   380   381      1
   404   380   382      1
   405   380   389      1
   406   381   390      1
   407   381   391      1
   408   382   383      1
   409   382   392      1
   410   382   393      1
   411   383   384      1
   412   383   394      1
   413   384   395      1
   414   384   396      1
   415   384   397      1
   416   397   398      1
   417   397   399      1
   418   397   400      1
   419   398   401      1
   420   398   402      1
   421   398   406      1
   422   403   404      1
   423   403   408      1
   424   403   410      1
   425   403   411      1
   426   404   405      1
   427   404   412      1
   428   404   413      1
   429   405   406      1
   430   405   407      1
   431   405   414      1
   432   406   415      1
   433   406   416      1
   434   407   408      1
   435   407   417      1
   436   407   418      1
   437   408   409      1
   438   408   419      1
   439   409   420      1
   440   409   421      1
   441   409   425      1
   442   422   423      1
   443   422   427      1
   444   422   429      1
   445   422   430      1
   446   423   424      1
   447   423   431      1
   448   423   432      1
   449   424   425      1
   450   424   426      1
   451   424   433      1
   452   425   434      1
   453   425   435      1
   454   426   427      1
   455   426   436      1
   456   426   437      1
   457   427   428      1
   458   427   438      1
   459   428   439      1
   460   428   440      1
   461   428   444      1
   462   441   442      1
   463   441   446      1
   464   441   448      1
   465   441   449      1
   466   442   443      1
   467   442   450      1
   468   442   451      1
   469   443   444      1
   470   443   445      1
   471   443   452      1
   472   444   453      1
   473   444   454      1
   474   445   446      1
   475   445   455      1
   476   445   456      1
   477   446   447      1
   478   446   457      1
   479   447   458      1
   480   447   459      1
   481   447   463      1
   482   460   461      1
   483   460   465      1
   484   460   467      1
   485   460   468      1
   486   461   462      1
   487   461   469      1
   488   461   470      1
   489   462   463      1
   490   462   464      1
   491   462   471      1
   492   463   472      1
   493   463   473      1
   494   464   465      1
   495   464   474      1
   496   464   475      1
   497   465   466      1
   498   465   476      1
   499   466   477      1
   500   466   478      1
   501   466   479      1
   502   479   480      1
   503   479   481      1
   504   479   482      1
   505   480   483      1
   506   480   484      1
   507   480   488      1
   508   485   486      1
   509   485   490      1
   510   485   492      1
   511   485   493      1
   512   486   487      1
   513   486   494      1
   514   486   495      1
   515   487   488      1
   516   487   489      1
   517   487   496      1
   518   488   497      1
   519   488   498      1
   520   489   490      1
   521   489   499      1
   522   489   500      1
   523   490   491      1
   524   490   501      1
   525   491   502      1
   526   491   503      1
   527   491   507      1
   528   504   505      1
   529   504   509      1
   530   504   511      1
   531   504   512      1
   532   505   506      1
   533   505   513      1
   534   505   514      1
   535   506   507      1
   536   506   508      1
   537   506   515      1
   538   507   516      1
   539   507   517      1
   540   508   509      1
   541   508   518      1
   542   508   519      1
   543   509   510      1
   544   509   520      1
   545   510   521      1
   546   510   522      1
   547   510   526      1
   548   523   524      1
   549   523   528      1
   550   523   530      1
   551   523   531      1
   552   524   525      1
   553   524   532      1
   554   524   533      1
   555   525   526      1
   556   525   527      1
   557   525   534      1
   558   526   535      1
   559   526   536      1
   560   527   528      1
   561   527   537      1
   562   527   538      1
   563   528   529      1
   564   528   539      1
   565   529   540      1
   566   529   541      1
   567   529   545      1
   568   542   543      1
   569   542   547      1
   570   542   549      1
   571   542   550      1
   572   543   544      1
   573   543   551      1
   574   543   552      1
   575   544   545      1
   576   544   546      1
   577   544   553      1
   578   545   554      1
   579   545   555      1
   580   546   547      1
   581   546   556      1
   582   546   557      1
   583   547   548      1
   584   547   558      1
   585   548   559      1
   586   548   560      1
   587   548   564      1
   588   561   562      1
   589   561   566      1
   590   561   568      1
   591   561   569      1
   592   562   563      1
   593   562   570      1
   594   562   571      1
   595   563   564      1
   596   563   565      1
   597   563   572      1
   598   564   573      1
   599   564   574      1
   600   565   566      1
   601   565   575      1
   602   565   576      1
   603   566   567      1
   604   566   577      1
   605   567   578      1
   606   567   579      1
   607   567   583      1
   608   580   581      1
   609   580   585      1
   610   580   587      1
   611   580   588      1
   612   581   582      1
   613   581   589      1
   614   581   590      1
   615   582   583      1
   616   582   584      1
   617   582   591      1
   618   583   592      1
   619   583   593      1
   620   584   585      1
   621   584   594      1
   622   584   595      1
   623   585   586      1
   624   585   596      1
   625   586   597      1
   626   586   598      1
   627   586   602      1
   628   599   600      1
   629   599   604      1
   630   599   606      1
   631   599   607      1
   632   600   601      1
   633   600   608      1
   634   600   609      1
   635   601   602      1
   636   601   603      1
   637   601   610      1
   638   602   611      1
   639   602   612      1
   640   603   604      1
   641   603   613      1
   642   603   614      1
   643   604   605      1
   644   604   615      1
   645   605   616      1
   646   605   617      1
   647   605   621      1
   648   618   619      1
   649   618   623      1
   650   618   625      1
   651   618   626      1
   652   619   620      1
   653   619   627      1
   654   619   628      1
   655   620   621      1
   656   620   622      1
   657   620   629      1
   658   621   630      1
   659   621   631      1
   660   622   623      1
   661   622   632      1
   662   622   633      1
   663   623   624      1
   664   623   634      1
   665   624   635      1
   666   624   636      1
   667   624   640      1
   668   637   638      1
   669   637   642      1
   670   637   644      1
   671   637   645      1
   672   638   639      1
   673   638   646      1
   674   638   647      1
   675   639   640      1
   676   639   641      1
   677   639   648      1
   678   640   649      1
   679   640   650      1
   680   641   642      1
   681   641   651      1
   682   641   652      1
   683   642   643      1
   684   642   653      1
   685   643   654      1
   686   643   655      1
   687   643   659      1
   688   656   657      1
   689   656   661      1
   690   656   663      1
   691   656   664      1
   692   657   658      1
   693   657   665      1
   694   657   666      1
   695   658   659      1
   696   658   660      1
   697   658   667      1
   698   659   668      1
   699   659   669      1
   700   660   661      1
   701   660   670      1
   702   660   671      1
   703   661   662      1
   704   661   672      1
   705   662   673      1
   706   662   674      1
   707   662   675      1
   708   675   676      1
   709   675   677      1
   710   675   678      1
   711   676   679      1
   712   676   680      1
   713   676   684      1
   714   681   682      1
   715   681   686      1
   716   681   688      1
   717   681   689      1
   718   682   683      1
   719   682   690      1
   720   682   691      1
   721   683   684      1
   722   683   685      1
   723   683   692      1
   724   684   693      1
   725   684   694      1
   726   685   686      1
   727   685   695      1
   728   685   696      1
   729   686   687      1
   730   686   697      1
   731   687   698      1
   732   687   699      1
   733   687   703      1
   734   700   701      1
   735   700   705      1
   736   700   707      1
   737   700   708      1
   738   701   702      1
   739   701   709      1
   740   701   710      1
   741   702   703      1
   742   702   704      1
   743   702   711      1
   744   703   712      1
   745   703   713      1
   746   704   705      1
   747   704   714      1
   748   704   715      1
   749   705   706      1
   750   705   716      1
   751   706   717      1
   752   706   718      1
   753   706   722      1
   754   719   720      1
   755   719   724      1
   756   719   726      1
   757   719   727      1
   758   720   721      1
   759   720   728      1
   760   720   729      1
   761   721   722      1
   762   721   723      1
   763   721   730      1
   764   722   731      1
   765   722   732      1
   766   723   724      1
   767   723   733      1
   768   723   734      1
   769   724   725      1
   770   724   735      1
   771   725   736      1
   772   725   737      1
   773   725   741      1
   774   738   739      1
   775   738   743      1
   776   738   745      1
   777   738   746      1
   778   739   740      1
   779   739   747      1
   780   739   748      1
   781   740   741      1
   782   740   742      1
   783   740   749      1
   784   741   750      1
   785   741   751      1
   786   742   743      1
   787   742   752      1
   788   742   753      1
   789   743   744      1
   790   743   754      1
   791   744   755      1
   792   744   756      1
   793   744   760      1
   794   757   758      1
   795   757   762      1
   796   757   764      1
   797   757   765      1
   798   758   759      1
   799   758   766      1
   800   758   767      1
   801   759   760      1
   802   759   761      1
   803   759   768      1
   804   760   769      1
   805   760   770      1
   806   761   762      1
   807   761   771      1
   808   761   772      1
   809   762   763      1
   810   762   773      1
   811   763   774      1
   812   763   775      1
   813   763   779      1
   814   776   777      1
   815   776   781      1
   816   776   783      1
   817   776   784      1
   818   777   778      1
   819   777   785      1
   820   777   786      1
   821   778   779      1
   822   778   780      1
   823   778   787      1
   824   779   788      1
   825   779   789      1
   826   780   781      1
   827   780   790      1
   828   780   791      1
   829   781   782      1
   830   781   792      1
   831   782   793      1
   832   782   794      1
   833   782   795      1
   834   795   796      1
   835   795   797      1
   836   795   798      1
   837   796   799      1
   838   796   800      1
   839   796   804      1
   840   801   802      1
   841   801   806      1
   842   801   808      1
   843   801   809      1
   844   802   803      1
   845   802   810      1
   846   802   811      1
   847   803   804      1
   848   803   805      1
   849   803   812      1
   850   804   813      1
   851   804   814      1
   852   805   806      1
   853   805   815      1
   854   805   816      1
   855   806   807      1
   856   806   817      1
   857   807   818      1
   858   807   819      1
   859   807   823      1
   860   820   821      1
   861   820   825      1
   862   820   827      1
   863   820   828      1
   864   821   822      1
   865   821   829      1
   866   821   830      1
   867   822   823      1
   868   822   824      1
   869   822   831      1
   870   823   832      1
   871   823   833      1
   872   824   825      1
   873   824   834      1
   874   824   835      1
   875   825   826      1
   876   825   836      1
   877   826   837      1
   878   826   838      1
   879   826   839      1
   880   839   840      1
   881   839   841      1
   882   839   842      1
   883   840   843      1
   884   840   844      1
   885   840   848      1
   886   845   846      1
   887   845   850      1
   888   845   852      1
   889   845   853      1
   890   846   847      1
   891   846   854      1
   892   846   855      1
   893   847   848      1
   894   847   849      1
   895   847   856      1
   896   848   857      1
   897   848   858      1
   898   849   850      1
   899   849   859      1
   900   849   860      1
   901   850   851      1
   902   850   861      1
   903   851   862      1
   904   851   863      1
   905   851   867      1
   906   864   865      1
   907   864   869      1
   908   864   871      1
   909   864   872      1
   910   865   866      1
   911   865   873      1
   912   865   874      1
   913   866   867      1
   914   866   868      1
   915   866   875      1
   916   867   876      1
   917   867   877      1
   918   868   869      1
   919   868   878      1
   920   868   879      1
   921   869   870      1
   922   869   880      1
   923   870   881      1
   924   870   882      1
   925   870   883      1
   926   883   884      1
   927   883   885      1
   928   883   886      1
   929   884   887      1
   930   884   888      1
   931   884   892      1
   932   889   890      1
   933   889   894      1
   934   889   896      1
   935   889   897      1
   936   890   891      1
   937   890   898      1
   938   890   899      1
   939   891   892      1
   940   891   893      1
   941   891   900      1
   942   892   901      1
   943   892   902      1
   944   893   894      1
   945   893   903      1
   946   893   904      1
   947   894   895      1
   948   894   905      1
   949   895   906      1
   950   895   907      1
   951   895   908      1
   952   908   909      1
   953   908   910      1
   954   908   911      1
   955   909   912      1
   956   909   913      1
   957   909   917      1
   958   914   915      1
   959   914   919      1
   960   914   921      1
   961   914   922      1
   962   915   916      1
   963   915   923      1
   964   915   924      1
   965   916   917      1
   966   916   918      1
   967   916   925      1
   968   917   926      1
   969   917   927      1
   970   918   919      1
   971   918   928      1
   972   918   929      1
   973   919   920      1
   974   919   930      1
   975   920   931      1
   976   920   932      1
   977   920   936      1
   978   933   934      1
   979   933   938      1
   980   933   940      1
   981   933   941      1
   982   934   935      1
   983   934   942      1
   984   934   943      1
   985   935   936      1
   986   935   937      1
   987   935   944      1
   988   936   945      1
   989   936   946      1
   990   937   938      1
   991   937   947      1
   992   937   948      1
   993   938   939      1
   994   938   949      1
   995   939   950      1
   996   939   951      1
   997   939   955      1
   998   952   953      1
   999   952   957      1
  1000   952   959      1
  1001   952   960      1
  1002   953   954      1
  1003   953   961      1
  1004   953   962      1
  1005   954   955      1
  1006   954   956      1
  1007   954   963      1
  1008   955   964      1
  1009   955   965      1
  1010   956   957      1
  1011   956   966      1
  1012   956   967      1
  1013   957   958      1
  1014   957   968      1
  1015   958   969      1
  1016   958   970      1
  1017   958   971      1
  1018   971   972      1
  1019   971   973      1
  1020   971   974      1
  1021   972   975      1
  1022   972   976      1
  1023   972   980      1
  1024   977   978      1
  1025   977   982      1
  1026   977   984      1
  1027   977   985      1
  1028   978   979      1
  1029   978   986      1
  1030   978   987      1
  1031   979   980      1
  1032   979   981      1
  1033   979   988      1
  1034   980   989      1
  1035   980   990      1
  1036   981   982      1
  1037   981   991      1
  1038   981   992      1
  1039   982   983      1
  1040   982   993      1
  1041   983   994      1
  1042   983   995      1
  1043   983   999      1
  1044   996   997      1
  1045   996  1001      1
  1046   996  1003      1
  1047   996  1004      1
  1048   997   998      1
  1049   997  1005      1
  1050   997  1006      1
  1051   998   999      1
  1052   998  1000      1
  1053   998  1007      1
  1054   999  1008      1
  1055   999  1009      1
  1056  1000  1001      1
  1057  1000  1010      1
  1058  1000  1011      1
  1059  1001  1002      1
  1060  1001  1012      1
  1061  1002  1013      1
  1062  1002  1014      1
  1063  1002  1015      1
  1064  1015  1016      1
  1065  1015  1017      1
  1066  1015  1018      1
  1067  1016  1019      1
  1068  1016  1020      1
  1069  1016  1024      1
  1070  1021  1022      1
  1071  1021  1026      1
  1072  1021  1028      1
  1073  1021  1029      1
  1074  1022  1023      1
  1075  1022  1030      1
  1076  1022  1031      1
  1077  1023  1024      1
  1078  1023  1025      1
  1079  1023  1032      1
  1080  1024  1033      1
  1081  1024  1034      1
  1082  1025  1026      1
  1083  1025  1035      1
  1084  1025  1036      1
  1085  1026  1027      1
  1086  1026  1037      1
  1087  1027  1038      1
  1088  1027  1039      1
  1089  1027  1043      1
  1090  1040  1041      1
  1091  1040  1045      1
  1092  1040  1047      1
  1093  1040  1048      1
  1094  1041  1042      1
  1095  1041  1049      1
  1096  1041  1050      1
  1097  1042  1043      1
  1098  1042  1044      1
  1099  1042  1051      1
  1100  1043  1052      1
  1101  1043  1053      1
  1102  1044  1045      1
  1103  1044  1054      1
  1104  1044  1055      1
  1105  1045  1046      1
  1106  1045  1056      1
  1107  1046  1057      1
  1108  1046  1058      1
  1109  1046  1059      1
  1110  1059  1060      1
  1111  1059  1061      1
  1112  1059  1062      1
  1113  1060  1063      1
  1114  1060  1064      1
  1115  1060  1068      1
  1116  1065  1066      1
  1117  1065  1070      1
  1118  1065  1072      1
  1119  1065  1073      1
  1120  1066  1067      1
  1121  1066  1074      1
  1122  1066  1075      1
  1123  1067  1068      1
  1124  1067  1069      1
  1125  1067  1076      1
  1126  1068  1077      1
  1127  1068  1078      1
  1128  1069  1070      1
  1129  1069  1079      1
  1130  1069  1080      1
  1131  1070  1071      1
  1132  1070  1081      1
  1133  1071  1082      1
  1134  1071  1083      1
  1135  1071  1087      1
  1136  1084  1085      1
  1137  1084  1089      1
  1138  1084  1091      1
  1139  1084  1092      1
  1140  1085  1086      1
  1141  1085  1093      1
  1142  1085  1094      1
  1143  1086  1087      1
  1144  1086  1088      1
  1145  1086  1095      1
  1146  1087  1096      1
  1147  1087  1097      1
  1148  1088  1089      1
  1149  1088  1098      1
  1150  1088  1099      1
  1151  1089  1090      1
  1152  1089  1100      1
  1153  1090  1101      1
  1154  1090  1102      1
  1155  1090  1103      1
  1156  1103  1104      1
  1157  1103  1105      1
  1158  1103  1106      1
  1159  1104  1107      1
  1160  1104  1108      1
  1161  1104  1109      1
  1162  1109  1110      1
  1163  1109  1111      1
  1164  1109  1112      1
  1165  1110  1113      1
  1166  1110  1114      1
  1167  1110  1118      1
  1168  1115  1116      1
  1169  1115  1120      1
  1170  1115  1122      1
  1171  1115  1123      1
  1172  1116  1117      1
  1173  1116  1124      1
  1174  1116  1125      1
  1175  1117  1118      1
  1176  1117  1119      1
  1177  1117  1126      1
  1178  1118  1127      1
  1179  1118  1128      1
  1180  1119  1120      1
  1181  1119  1129      1
  1182  1119  1130      1
  1183  1120  1121      1
  1184  1120  1131      1
  1185  1121  1132      1
  1186  1121  1133      1
  1187  1121  1137      1
  1188  1134  1135      1
  1189  1134  1139      1
  1190  1134  1141      1
  1191  1134  1142      1
  1192  1135  1136      1
  1193  1135  1143      1
  1194  1135  1144      1
  1195  1136  1137      1
  1196  1136  1138      1
  1197  1136  1145      1
  1198  1137  1146      1
  1199  1137  1147      1
  1200  1138  1139      1
  1201  1138  1148      1
  1202  1138  1149      1
  1203  1139  1140      1
  1204  1139  1150      1
  1205  1140  1151      1
  1206  1140  1152      1
  1207  1140  1153      1
  1208  1153  1154      1
  1209  1153  1155      1
  1210  1153  1156      1
  1211  1154  1157      1
  1212  1154  1158      1
  1213  1154  1162      1
  1214  1159  1160      1
  1215  1159  1164      1
  1216  1159  1166      1
  1217  1159  1167      1
  1218  1160  1161      1
  1219  1160  1168      1
  1220  1160  1169      1
  1221  1161  1162      1
  1222  1161  1163      1
  1223  1161  1170      1
  1224  1162  1171      1
  1225  1162  1172      1
  1226  1163  1164      1
  1227  1163  1173      1
  1228  1163  1174      1
  1229  1164  1165      1
  1230  1164  1175      1
  1231  1165  1176      1
  1232  1165  1177      1
  1233  1165  1181      1
  1234  1178  1179      1
  1235  1178  1183      1
  1236  1178  1185      1
  1237  1178  1186      1
  1238  1179  1180      1
  1239  1179  1187      1
  1240  1179  1188      1
  1241  1180  1181      1
  1242  1180  1182      1
  1243  1180  1189      1
  1244  1181  1190      1
  1245  1181  1191      1
  1246  1182  1183      1
  1247  1182  1192      1
  1248  1182  1193      1
  1249  1183  1184      1
  1250  1183  1194      1
  1251  1184  1195      1
  1252  1184  1196      1
  1253  1184  1197      H
