###
### Created by PolyChef-cpp17 on Wed Feb 26 21:14:13 2025
###

@<TRIPOS>MOLECULE
NO_INFO
1468 1535 1 0 0
SMALL
USER_CHARGES


@<TRIPOS>ATOM
      1 C          67.0716  204.0830  134.1780 C.3       0        0    0.0000
      2 C          66.3531  203.2545  135.2338 C.3       0        0    0.0000
      3 C          66.3814  204.1685  136.4631 C.3       0        0    0.0000
      4 C          66.0950  203.4801  137.8011 C.3       0        0    0.0000
      5 C          67.7231  204.9222  136.3775 C.3       0        0    0.0000
      6 C          68.2551  204.6719  134.9528 C.3       0        0    0.0000
      7 C          68.9482  205.8649  134.2876 C.3       0        0    0.0000
      8 H          67.3980  203.4717  133.3309 H         0        0    0.0000
      9 H          66.4001  204.8606  133.7977 H         0        0    0.0000
     10 H          65.3317  203.0036  134.9313 H         0        0    0.0000
     11 H          66.8972  202.3188  135.4033 H         0        0    0.0000
     12 H          65.5884  204.9183  136.3214 H         0        0    0.0000
     13 H          66.6591  202.5411  137.8485 H         0        0    0.0000
     14 H          66.4665  204.1123  138.6163 H         0        0    0.0000
     15 H          68.4573  204.5691  137.1097 H         0        0    0.0000
     16 H          67.5606  205.9843  136.5908 H         0        0    0.0000
     17 H          69.0112  203.8763  135.0332 H         0        0    0.0000
     18 H          69.2532  205.5817  133.2732 H         0        0    0.0000
     19 H          68.2280  206.6849  134.1826 H         0        0    0.0000
     20 C          73.5603  204.8841  135.4926 C.3       1        0    0.0000
     21 C          72.3502  205.0555  134.5711 C.3       1        0    0.0000
     22 C          71.1256  205.2473  135.4837 C.3       1        0    0.0000
     23 C          70.1968  206.3908  135.0573 C.3       1        0    0.0000
     24 C          71.7197  205.4676  136.8786 C.3       1        0    0.0000
     25 C          72.9960  204.6195  136.8927 C.3       1        0    0.0000
     26 C          72.7085  203.1295  137.1579 C.3       1        0    0.0000
     27 H          74.2375  204.1030  135.1345 H         1        0    0.0000
     28 H          74.1299  205.8223  135.5057 H         1        0    0.0000
     29 H          72.5121  205.9006  133.8929 H         1        0    0.0000
     30 H          72.2147  204.1628  133.9494 H         1        0    0.0000
     31 H          70.5567  204.3067  135.4997 H         1        0    0.0000
     32 H          69.8545  206.9318  135.9475 H         1        0    0.0000
     33 H          70.7389  207.1128  134.4357 H         1        0    0.0000
     34 H          71.0172  205.1917  137.6718 H         1        0    0.0000
     35 H          71.9811  206.5243  137.0200 H         1        0    0.0000
     36 H          73.6828  205.0010  137.6589 H         1        0    0.0000
     37 H          72.3888  202.6192  136.2427 H         1        0    0.0000
     38 H          71.8853  203.0401  137.8767 H         1        0    0.0000
     39 C          73.9487  202.3983  137.7487 C.3       2        0    0.0000
     40 C          74.7637  201.6139  136.7105 C.3       2        0    0.0000
     41 H          74.5983  203.1721  138.1775 H         2        0    0.0000
     42 H          73.6370  201.7549  138.5799 H         2        0    0.0000
     43 H          75.1562  200.6815  137.1330 H         2        0    0.0000
     44 H          74.0891  201.3285  135.8931 H         2        0    0.0000
     45 C          77.2586  202.5493  139.5305 C.3       3        0    0.0000
     46 C          76.3057  203.1755  138.5093 C.3       3        0    0.0000
     47 C          76.9273  202.9347  137.1219 C.3       3        0    0.0000
     48 C          75.9335  202.4355  136.0659 C.3       3        0    0.0000
     49 C          78.0580  201.9332  137.3786 C.3       3        0    0.0000
     50 C          78.5681  202.2785  138.7818 C.3       3        0    0.0000
     51 C          79.5245  203.4862  138.7785 C.3       3        0    0.0000
     52 H          77.3786  203.1806  140.4161 H         3        0    0.0000
     53 H          76.8349  201.5956  139.8705 H         3        0    0.0000
     54 H          75.3070  202.7364  138.6102 H         3        0    0.0000
     55 H          76.2060  204.2520  138.6906 H         3        0    0.0000
     56 H          77.3775  203.8767  136.7775 H         3        0    0.0000
     57 H          75.5047  203.2944  135.5360 H         3        0    0.0000
     58 H          76.4472  201.8235  135.3157 H         3        0    0.0000
     59 H          78.8402  201.9934  136.6150 H         3        0    0.0000
     60 H          77.6679  200.9071  137.3735 H         3        0    0.0000
     61 H          79.0802  201.4083  139.2116 H         3        0    0.0000
     62 H          79.4884  204.0222  139.7334 H         3        0    0.0000
     63 H          79.2121  204.1957  138.0030 H         3        0    0.0000
     64 C          80.9917  203.0602  138.4823 C.3       4        0    0.0000
     65 C          81.5347  203.5818  137.1443 C.3       4        0    0.0000
     66 H          81.6111  203.4770  139.2869 H         4        0    0.0000
     67 H          81.0808  201.9697  138.5511 H         4        0    0.0000
     68 H          80.7446  203.6335  136.3860 H         4        0    0.0000
     69 H          81.8896  204.6090  137.2980 H         4        0    0.0000
     70 C          85.3691  204.6426  135.9703 C.3       5        0    0.0000
     71 C          83.8892  204.8118  135.6161 C.3       5        0    0.0000
     72 C          83.3469  203.4086  135.3227 C.3       5        0    0.0000
     73 C          82.7494  202.7620  136.5866 C.3       5        0    0.0000
     74 C          84.5866  202.6945  134.7692 C.3       5        0    0.0000
     75 C          85.7341  203.1820  135.6574 C.3       5        0    0.0000
     76 C          87.1036  202.9979  134.9939 C.3       5        0    0.0000
     77 H          85.9708  205.3566  135.3965 H         5        0    0.0000
     78 H          85.5380  204.8556  137.0321 H         5        0    0.0000
     79 H          83.8105  205.4269  134.7107 H         5        0    0.0000
     80 H          83.3367  205.3319  136.4053 H         5        0    0.0000
     81 H          82.5695  203.4644  134.5499 H         5        0    0.0000
     82 H          83.5197  202.7155  137.3660 H         5        0    0.0000
     83 H          82.4365  201.7301  136.3950 H         5        0    0.0000
     84 H          84.7515  203.0062  133.7295 H         5        0    0.0000
     85 H          84.5023  201.6037  134.7744 H         5        0    0.0000
     86 H          85.7124  202.6111  136.5963 H         5        0    0.0000
     87 H          87.8918  203.4337  135.6189 H         5        0    0.0000
     88 H          87.1209  203.5362  134.0389 H         5        0    0.0000
     89 C          88.4607  199.6663  137.8567 C.3       6        0    0.0000
     90 C          87.8113  200.8671  137.1637 C.3       6        0    0.0000
     91 C          88.4039  200.9203  135.7494 C.3       6        0    0.0000
     92 C          87.4206  201.4982  134.7277 C.3       6        0    0.0000
     93 C          88.8148  199.4673  135.4891 C.3       6        0    0.0000
     94 C          89.4186  199.0441  136.8323 C.3       6        0    0.0000
     95 C          89.5660  197.5313  137.0173 C.3       6        0    0.0000
     96 H          88.9969  199.9689  138.7626 H         6        0    0.0000
     97 H          87.6827  198.9562  138.1616 H         6        0    0.0000
     98 H          88.0080  201.7974  137.7072 H         6        0    0.0000
     99 H          86.7237  200.7296  137.1381 H         6        0    0.0000
    100 H          89.3112  201.5411  135.7812 H         6        0    0.0000
    101 H          86.4828  200.9312  134.7672 H         6        0    0.0000
    102 H          87.8166  201.3837  133.7119 H         6        0    0.0000
    103 H          89.5387  199.3872  134.6719 H         6        0    0.0000
    104 H          87.9422  198.8510  135.2389 H         6        0    0.0000
    105 H          90.4002  199.5274  136.9435 H         6        0    0.0000
    106 H          88.7095  197.0089  136.5752 H         6        0    0.0000
    107 H          89.5617  197.2954  138.0882 H         6        0    0.0000
    108 C          90.8811  196.9854  136.3965 C.3       7        0    0.0000
    109 C          91.4037  195.7068  137.0670 C.3       7        0    0.0000
    110 H          90.6635  196.7543  135.3458 H         7        0    0.0000
    111 H          91.6429  197.7737  136.3927 H         7        0    0.0000
    112 H          91.2968  195.7556  138.1569 H         7        0    0.0000
    113 H          90.7837  194.8669  136.7282 H         7        0    0.0000
    114 C          92.8858  195.3533  136.6967 C.3       8        0    0.0000
    115 C          93.6721  194.6892  137.8361 C.3       8        0    0.0000
    116 H          93.3836  196.2987  136.4454 H         8        0    0.0000
    117 H          92.9034  194.7389  135.7889 H         8        0    0.0000
    118 H          93.6253  195.3492  138.7118 H         8        0    0.0000
    119 H          93.2148  193.7388  138.1352 H         8        0    0.0000
    120 C          95.1912  194.4675  137.5171 C.3       9        0    0.0000
    121 C          95.8402  193.3362  138.3274 C.3       9        0    0.0000
    122 H          95.2566  194.2051  136.4534 H         9        0    0.0000
    123 H          95.7363  195.4105  137.6413 H         9        0    0.0000
    124 H          96.8729  193.5828  138.6004 H         9        0    0.0000
    125 H          95.2842  193.2287  139.2676 H         9        0    0.0000
    126 C          95.8008  191.9394  137.6160 C.3      10        0    0.0000
    127 C          96.4003  190.7977  138.4495 C.3      10        0    0.0000
    128 H          96.3914  192.0357  136.6959 H        10        0    0.0000
    129 H          94.7741  191.7110  137.3069 H        10        0    0.0000
    130 H          96.2963  191.0596  139.5102 H        10        0    0.0000
    131 H          95.8470  189.8629  138.3017 H        10        0    0.0000
    132 C          98.7073  188.1483  141.0278 C.3      11        0    0.0000
    133 C          97.7029  188.9507  140.2126 C.3      11        0    0.0000
    134 C          98.5276  189.4021  139.0028 C.3      11        0    0.0000
    135 C          97.9276  190.5543  138.1911 C.3      11        0    0.0000
    136 C          99.9490  189.6428  139.5476 C.3      11        0    0.0000
    137 C          99.9736  189.0076  140.9517 C.3      11        0    0.0000
    138 C         101.2753  188.2954  141.3316 C.3      11        0    0.0000
    139 H          98.3720  188.0006  142.0591 H        11        0    0.0000
    140 H          98.8503  187.1623  140.5721 H        11        0    0.0000
    141 H          96.8389  188.3465  139.9191 H        11        0    0.0000
    142 H          97.3400  189.7988  140.8037 H        11        0    0.0000
    143 H          98.5921  188.5404  138.3214 H        11        0    0.0000
    144 H          98.4749  191.4764  138.4199 H        11        0    0.0000
    145 H          98.0769  190.3561  137.1231 H        11        0    0.0000
    146 H         100.2020  190.7059  139.6224 H        11        0    0.0000
    147 H         100.6824  189.1981  138.8663 H        11        0    0.0000
    148 H          99.8452  189.8293  141.6724 H        11        0    0.0000
    149 H         102.1240  188.8640  140.9332 H        11        0    0.0000
    150 H         101.3795  188.2972  142.4231 H        11        0    0.0000
    151 C         105.0110  185.8639  140.5532 C.3      12        0    0.0000
    152 C         103.5655  185.7802  140.0558 C.3      12        0    0.0000
    153 C         102.6768  186.1465  141.2517 C.3      12        0    0.0000
    154 C         101.3737  186.8261  140.8219 C.3      12        0    0.0000
    155 C         103.5961  187.0166  142.1152 C.3      12        0    0.0000
    156 C         104.9355  186.2772  142.0288 C.3      12        0    0.0000
    157 C         106.1492  187.1026  142.4649 C.3      12        0    0.0000
    158 H         105.5294  184.9057  140.4397 H        12        0    0.0000
    159 H         105.5599  186.6027  139.9571 H        12        0    0.0000
    160 H         103.3281  184.7782  139.6824 H        12        0    0.0000
    161 H         103.4251  186.4790  139.2226 H        12        0    0.0000
    162 H         102.4475  185.2233  141.8037 H        12        0    0.0000
    163 H         100.5224  186.2612  141.2201 H        12        0    0.0000
    164 H         101.2796  186.8117  139.7298 H        12        0    0.0000
    165 H         103.2369  187.0929  143.1464 H        12        0    0.0000
    166 H         103.6794  188.0299  141.7027 H        12        0    0.0000
    167 H         104.8717  185.3636  142.6377 H        12        0    0.0000
    168 H         105.8450  187.8799  143.1756 H        12        0    0.0000
    169 H         106.5685  187.6183  141.5928 H        12        0    0.0000
    170 C         107.2618  186.2259  143.1024 C.3      13        0    0.0000
    171 C         108.2987  185.7052  142.0969 C.3      13        0    0.0000
    172 H         107.7833  186.8576  143.8329 H        13        0    0.0000
    173 H         106.8063  185.4041  143.6674 H        13        0    0.0000
    174 H         108.2537  186.2616  141.1533 H        13        0    0.0000
    175 H         109.2976  185.8797  142.5167 H        13        0    0.0000
    176 C         110.0783  182.2845  144.3321 C.3      14        0    0.0000
    177 C         109.4705  183.6340  143.9526 C.3      14        0    0.0000
    178 C         108.2283  183.3329  143.0961 C.3      14        0    0.0000
    179 C         108.1910  184.1676  141.8092 C.3      14        0    0.0000
    180 C         108.2763  181.8159  142.8573 C.3      14        0    0.0000
    181 C         108.9807  181.2443  144.0943 C.3      14        0    0.0000
    182 C         108.0674  181.0872  145.3238 C.3      14        0    0.0000
    183 H         110.9242  182.0761  143.6646 H        14        0    0.0000
    184 H         110.4659  182.2810  145.3557 H        14        0    0.0000
    185 H         110.2089  184.2522  143.4305 H        14        0    0.0000
    186 H         109.1715  184.1819  144.8540 H        14        0    0.0000
    187 H         107.3390  183.5648  143.6991 H        14        0    0.0000
    188 H         107.2727  183.9607  141.2475 H        14        0    0.0000
    189 H         109.0288  183.8763  141.1643 H        14        0    0.0000
    190 H         107.2794  181.3939  142.6971 H        14        0    0.0000
    191 H         108.8761  181.5894  141.9661 H        14        0    0.0000
    192 H         109.4359  180.2745  143.8559 H        14        0    0.0000
    193 H         107.6125  182.0429  145.6057 H        14        0    0.0000
    194 H         108.6692  180.7619  146.1811 H        14        0    0.0000
    195 C         106.9515  180.0296  145.0911 C.3      15        0    0.0000
    196 C         105.6564  180.6081  144.5035 C.3      15        0    0.0000
    197 H         107.3521  179.2981  144.3776 H        15        0    0.0000
    198 H         106.7584  179.4851  146.0229 H        15        0    0.0000
    199 H         104.8140  179.9200  144.6404 H        15        0    0.0000
    200 H         105.4087  181.5216  145.0592 H        15        0    0.0000
    201 C         107.4671  177.7789  142.6424 C.3      16        0    0.0000
    202 C         106.1279  178.4920  142.8229 C.3      16        0    0.0000
    203 C         106.2538  179.8524  142.1154 C.3      16        0    0.0000
    204 C         105.7675  181.0133  142.9928 C.3      16        0    0.0000
    205 C         107.7336  179.9486  141.7133 C.3      16        0    0.0000
    206 C         108.1770  178.4970  141.4918 C.3      16        0    0.0000
    207 C         107.7759  177.9168  140.1232 C.3      16        0    0.0000
    208 H         108.0577  177.8956  143.5601 H        16        0    0.0000
    209 H         107.3420  176.7049  142.4731 H        16        0    0.0000
    210 H         105.8854  178.5856  143.8871 H        16        0    0.0000
    211 H         105.3230  177.9095  142.3593 H        16        0    0.0000
    212 H         105.6441  179.8146  141.2015 H        16        0    0.0000
    213 H         104.7976  181.3796  142.6367 H        16        0    0.0000
    214 H         106.4718  181.8498  142.9095 H        16        0    0.0000
    215 H         107.8792  180.5816  140.8325 H        16        0    0.0000
    216 H         108.3230  180.3831  142.5313 H        16        0    0.0000
    217 H         109.2639  178.4103  141.6166 H        16        0    0.0000
    218 H         106.9248  178.4580  139.6962 H        16        0    0.0000
    219 H         107.4525  176.8769  140.2529 H        16        0    0.0000
    220 C         108.6487  176.2024  135.7753 C.3      17        0    0.0000
    221 C         108.0392  177.0081  136.9256 C.3      17        0    0.0000
    222 C         108.9184  176.7379  138.1537 C.3      17        0    0.0000
    223 C         108.9588  177.9299  139.1140 C.3      17        0    0.0000
    224 C         110.2719  176.3675  137.5384 C.3      17        0    0.0000
    225 C         109.8706  175.4789  136.3563 C.3      17        0    0.0000
    226 C         110.9722  175.2679  135.3139 C.3      17        0    0.0000
    227 H         107.9289  175.4876  135.3619 H        17        0    0.0000
    228 H         108.9335  176.8827  134.9638 H        17        0    0.0000
    229 H         107.0009  176.7146  137.1136 H        17        0    0.0000
    230 H         108.0334  178.0726  136.6626 H        17        0    0.0000
    231 H         108.5171  175.8567  138.6751 H        17        0    0.0000
    232 H         108.9146  178.8613  138.5370 H        17        0    0.0000
    233 H         109.9073  177.9434  139.6637 H        17        0    0.0000
    234 H         110.9131  175.8371  138.2496 H        17        0    0.0000
    235 H         110.8050  177.2625  137.1939 H        17        0    0.0000
    236 H         109.5391  174.5054  136.7460 H        17        0    0.0000
    237 H         111.7218  176.0646  135.3862 H        17        0    0.0000
    238 H         110.5372  175.3334  134.3094 H        17        0    0.0000
    239 C         115.1394  173.0640  134.4368 C.3      18        0    0.0000
    240 C         114.1540  174.1681  134.8277 C.3      18        0    0.0000
    241 C         112.7571  173.6829  134.4003 C.3      18        0    0.0000
    242 C         111.6689  173.8874  135.4615 C.3      18        0    0.0000
    243 C         112.9574  172.2057  134.0472 C.3      18        0    0.0000
    244 C         114.3810  172.1331  133.4844 C.3      18        0    0.0000
    245 C         114.4545  172.5823  132.0127 C.3      18        0    0.0000
    246 H         116.0619  173.4725  134.0135 H        18        0    0.0000
    247 H         115.4195  172.5050  135.3389 H        18        0    0.0000
    248 H         114.2241  174.3699  135.9022 H        18        0    0.0000
    249 H         114.3996  175.1007  134.3063 H        18        0    0.0000
    250 H         112.4720  174.2175  133.4829 H        18        0    0.0000
    251 H         110.9103  173.1021  135.3597 H        18        0    0.0000
    252 H         112.0925  173.7913  136.4678 H        18        0    0.0000
    253 H         112.2020  171.8469  133.3405 H        18        0    0.0000
    254 H         112.8888  171.5844  134.9496 H        18        0    0.0000
    255 H         114.7596  171.1069  133.5724 H        18        0    0.0000
    256 H         114.6840  173.6508  131.9360 H        18        0    0.0000
    257 H         113.4782  172.4312  131.5369 H        18        0    0.0000
    258 C         113.8632  169.2658  129.0268 C.3      19        0    0.0000
    259 C         113.6870  170.2883  130.1520 C.3      19        0    0.0000
    260 C         115.0273  170.3476  130.9067 C.3      19        0    0.0000
    261 C         115.5136  171.7695  131.2130 C.3      19        0    0.0000
    262 C         116.0036  169.5770  130.0122 C.3      19        0    0.0000
    263 C         115.1466  168.4930  129.3499 C.3      19        0    0.0000
    264 C         114.9090  167.2848  130.2756 C.3      19        0    0.0000
    265 H         112.9809  168.6288  128.9133 H        19        0    0.0000
    266 H         113.9959  169.8030  128.0789 H        19        0    0.0000
    267 H         113.3900  171.2570  129.7352 H        19        0    0.0000
    268 H         112.8896  169.9711  130.8343 H        19        0    0.0000
    269 H         114.9172  169.7926  131.8493 H        19        0    0.0000
    270 H         116.4340  171.7184  131.8068 H        19        0    0.0000
    271 H         115.7631  172.2971  130.2852 H        19        0    0.0000
    272 H         116.8440  169.1662  130.5811 H        19        0    0.0000
    273 H         116.4178  170.2384  129.2402 H        19        0    0.0000
    274 H         115.6312  168.1548  128.4252 H        19        0    0.0000
    275 H         113.9809  167.4001  130.8464 H        19        0    0.0000
    276 H         115.7253  167.2188  131.0047 H        19        0    0.0000
    277 C         114.8613  165.9481  129.4800 C.3      20        0    0.0000
    278 C         113.4496  165.5333  129.0412 C.3      20        0    0.0000
    279 H         115.4689  166.0946  128.5778 H        20        0    0.0000
    280 H         115.3478  165.1553  130.0602 H        20        0    0.0000
    281 H         112.9670  164.9012  129.7958 H        20        0    0.0000
    282 H         112.8391  166.4414  128.9556 H        20        0    0.0000
    283 C         116.8594  164.4976  126.4619 C.3      21        0    0.0000
    284 C         115.9506  164.7252  127.6689 C.3      21        0    0.0000
    285 C         114.6447  163.9619  127.3878 C.3      21        0    0.0000
    286 C         113.3998  164.8212  127.6451 C.3      21        0    0.0000
    287 C         114.7806  163.4754  125.9368 C.3      21        0    0.0000
    288 C         116.2877  163.2837  125.7249 C.3      21        0    0.0000
    289 C         116.8406  161.9618  126.2883 C.3      21        0    0.0000
    290 H         116.8056  165.3763  125.8065 H        21        0    0.0000
    291 H         117.9073  164.3753  126.7531 H        21        0    0.0000
    292 H         115.7917  165.7970  127.8307 H        21        0    0.0000
    293 H         116.4201  164.3287  128.5768 H        21        0    0.0000
    294 H         114.6175  163.0851  128.0503 H        21        0    0.0000
    295 H         112.4932  164.2090  127.5752 H        21        0    0.0000
    296 H         113.3234  165.5899  126.8667 H        21        0    0.0000
    297 H         114.2016  162.5651  125.7531 H        21        0    0.0000
    298 H         114.4153  164.2429  125.2420 H        21        0    0.0000
    299 H         116.5312  163.3514  124.6569 H        21        0    0.0000
    300 H         116.1913  161.5625  127.0748 H        21        0    0.0000
    301 H         117.8169  162.1476  126.7524 H        21        0    0.0000
    302 C         117.7376  161.8919  121.7192 C.3      22        0    0.0000
    303 C         117.4076  162.3685  123.1329 C.3      22        0    0.0000
    304 C         118.0240  161.3424  124.0994 C.3      22        0    0.0000
    305 C         117.0324  160.8891  125.1790 C.3      22        0    0.0000
    306 C         118.5273  160.2067  123.1951 C.3      22        0    0.0000
    307 C         118.8840  160.8883  121.8680 C.3      22        0    0.0000
    308 C         120.2566  161.5856  121.8660 C.3      22        0    0.0000
    309 H         116.8605  161.3794  121.3037 H        22        0    0.0000
    310 H         117.9732  162.7243  121.0487 H        22        0    0.0000
    311 H         116.3243  162.4743  123.2571 H        22        0    0.0000
    312 H         117.8502  163.3553  123.3130 H        22        0    0.0000
    313 H         118.8902  161.8142  124.5844 H        22        0    0.0000
    314 H         117.3648  159.9471  125.6301 H        22        0    0.0000
    315 H         116.0581  160.6918  124.7158 H        22        0    0.0000
    316 H         119.3692  159.6689  123.6419 H        22        0    0.0000
    317 H         117.7267  159.4763  123.0197 H        22        0    0.0000
    318 H         118.8470  160.1606  121.0472 H        22        0    0.0000
    319 H         120.3331  162.3149  122.6795 H        22        0    0.0000
    320 H         120.3753  162.1461  120.9307 H        22        0    0.0000
    321 C         123.7233  160.9339  119.0752 C.3      23        0    0.0000
    322 C         122.3806  161.3292  119.6947 C.3      23        0    0.0000
    323 C         121.9433  160.1524  120.5852 C.3      23        0    0.0000
    324 C         121.4284  160.5686  121.9686 C.3      23        0    0.0000
    325 C         123.1829  159.2559  120.6695 C.3      23        0    0.0000
    326 C         123.8761  159.4277  119.3136 C.3      23        0    0.0000
    327 C         123.2276  158.5711  118.2096 C.3      23        0    0.0000
    328 H         123.7868  161.2229  118.0218 H        23        0    0.0000
    329 H         124.5258  161.4648  119.6032 H        23        0    0.0000
    330 H         122.4860  162.2674  120.2505 H        23        0    0.0000
    331 H         121.6340  161.4996  118.9102 H        23        0    0.0000
    332 H         121.1548  159.5958  120.0587 H        23        0    0.0000
    333 H         121.0729  159.6812  122.5059 H        23        0    0.0000
    334 H         122.2408  160.9976  122.5664 H        23        0    0.0000
    335 H         122.9221  158.2147  120.8849 H        23        0    0.0000
    336 H         123.8512  159.6023  121.4685 H        23        0    0.0000
    337 H         124.9368  159.1619  119.4064 H        23        0    0.0000
    338 H         123.5167  158.9243  117.2136 H        23        0    0.0000
    339 H         122.1366  158.6589  118.2745 H        23        0    0.0000
    340 C         124.7696  157.2439  121.9633 C.3      24        0    0.0000
    341 C         123.7264  157.5392  120.8947 C.3      24        0    0.0000
    342 C         124.2023  156.6928  119.7094 C.3      24        0    0.0000
    343 C         123.6015  157.0671  118.3510 C.3      24        0    0.0000
    344 C         125.7415  156.7180  119.7848 C.3      24        0    0.0000
    345 C         126.0843  157.2827  121.1774 C.3      24        0    0.0000
    346 C         127.2861  156.6373  121.8741 C.3      24        0    0.0000
    347 H         124.7502  157.9841  122.7691 H        24        0    0.0000
    348 H         124.5808  156.2580  122.4022 H        24        0    0.0000
    349 H         122.7187  157.2622  121.2195 H        24        0    0.0000
    350 H         123.7269  158.6100  120.6630 H        24        0    0.0000
    351 H         123.8930  155.6565  119.9129 H        24        0    0.0000
    352 H         124.3143  156.8055  117.5600 H        24        0    0.0000
    353 H         122.7030  156.4630  118.1778 H        24        0    0.0000
    354 H         126.1953  157.3483  119.0124 H        24        0    0.0000
    355 H         126.1323  155.7070  119.6274 H        24        0    0.0000
    356 H         126.3390  158.3437  121.0341 H        24        0    0.0000
    357 H         127.4627  157.1470  122.8287 H        24        0    0.0000
    358 H         127.0443  155.5950  122.1135 H        24        0    0.0000
    359 C         130.5002  153.4780  121.7202 C.3      25        0    0.0000
    360 C         129.2022  154.2517  121.5465 C.3      25        0    0.0000
    361 C         129.6646  155.7097  121.5852 C.3      25        0    0.0000
    362 C         128.6018  156.6669  121.0398 C.3      25        0    0.0000
    363 C         130.9855  155.6959  120.7942 C.3      25        0    0.0000
    364 C         131.4931  154.2397  120.8332 C.3      25        0    0.0000
    365 C         132.9709  154.0677  121.2067 C.3      25        0    0.0000
    366 H         130.3967  152.4324  121.4135 H        25        0    0.0000
    367 H         130.7951  153.4899  122.7751 H        25        0    0.0000
    368 H         128.7411  154.0081  120.5816 H        25        0    0.0000
    369 H         128.4812  154.0251  122.3378 H        25        0    0.0000
    370 H         129.8924  155.9711  122.6289 H        25        0    0.0000
    371 H         128.9917  157.6914  121.0165 H        25        0    0.0000
    372 H         128.3677  156.3957  120.0035 H        25        0    0.0000
    373 H         130.8255  155.9902  119.7495 H        25        0    0.0000
    374 H         131.6980  156.4107  121.2191 H        25        0    0.0000
    375 H         131.3833  153.8420  119.8133 H        25        0    0.0000
    376 H         133.2546  153.0172  121.0713 H        25        0    0.0000
    377 H         133.0969  154.2920  122.2726 H        25        0    0.0000
    378 C         134.3580  154.1840  116.7854 C.3      26        0    0.0000
    379 C         133.6306  153.8425  118.0882 C.3      26        0    0.0000
    380 C         134.5964  154.1893  119.2354 C.3      26        0    0.0000
    381 C         133.9482  154.9620  120.3909 C.3      26        0    0.0000
    382 C         135.7208  154.9823  118.5616 C.3      26        0    0.0000
    383 C         135.8319  154.3773  117.1580 C.3      26        0    0.0000
    384 C         136.6366  153.0638  117.1464 C.3      26        0    0.0000
    385 H         134.1931  153.4242  116.0156 H        26        0    0.0000
    386 H         133.9587  155.1290  116.3953 H        26        0    0.0000
    387 H         132.6858  154.3942  118.1457 H        26        0    0.0000
    388 H         133.3844  152.7747  118.1190 H        26        0    0.0000
    389 H         135.0235  153.2528  119.6218 H        26        0    0.0000
    390 H         134.7302  155.3289  121.0663 H        26        0    0.0000
    391 H         133.4167  155.8426  120.0121 H        26        0    0.0000
    392 H         136.6579  154.9246  119.1249 H        26        0    0.0000
    393 H         135.4464  156.0422  118.4824 H        26        0    0.0000
    394 H         136.3044  155.1010  116.4817 H        26        0    0.0000
    395 H         136.1697  152.3194  116.4920 H        26        0    0.0000
    396 H         136.6502  152.6365  118.1561 H        26        0    0.0000
    397 C         138.1091  153.2924  116.6976 C.3      27        0    0.0000
    398 C         138.9827  152.0312  116.7579 C.3      27        0    0.0000
    399 H         138.0732  153.6322  115.6545 H        27        0    0.0000
    400 H         138.5496  154.1110  117.2788 H        27        0    0.0000
    401 H         138.9200  151.5493  117.7406 H        27        0    0.0000
    402 H         138.5904  151.3102  116.0293 H        27        0    0.0000
    403 C         142.1981  149.0149  115.5101 C.3      28        0    0.0000
    404 C         140.9202  149.8177  115.7003 C.3      28        0    0.0000
    405 C         141.3807  151.0389  116.5062 C.3      28        0    0.0000
    406 C         140.4856  152.2788  116.3856 C.3      28        0    0.0000
    407 C         142.8615  151.2525  116.1304 C.3      28        0    0.0000
    408 C         143.2354  150.0929  115.1891 C.3      28        0    0.0000
    409 C         144.6688  149.5790  115.3445 C.3      28        0    0.0000
    410 H         142.4533  148.4827  116.4346 H        28        0    0.0000
    411 H         142.1036  148.2789  114.7058 H        28        0    0.0000
    412 H         140.5145  150.0972  114.7220 H        28        0    0.0000
    413 H         140.1526  149.2444  116.2295 H        28        0    0.0000
    414 H         141.3652  150.7480  117.5672 H        28        0    0.0000
    415 H         140.8824  153.0685  117.0348 H        28        0    0.0000
    416 H         140.5384  152.6603  115.3590 H        28        0    0.0000
    417 H         143.4680  151.2330  117.0445 H        28        0    0.0000
    418 H         143.0472  152.2176  115.6475 H        28        0    0.0000
    419 H         143.0759  150.4267  114.1534 H        28        0    0.0000
    420 H         144.7163  148.8251  116.1393 H        28        0    0.0000
    421 H         144.9770  149.0795  114.4183 H        28        0    0.0000
    422 C         149.1475  149.2613  116.2048 C.3      29        0    0.0000
    423 C         147.6324  149.1328  116.2782 C.3      29        0    0.0000
    424 C         147.1476  150.3297  115.4536 C.3      29        0    0.0000
    425 C         145.6799  150.7175  115.6577 C.3      29        0    0.0000
    426 C         148.1737  151.4484  115.7201 C.3      29        0    0.0000
    427 C         149.3731  150.7637  116.4043 C.3      29        0    0.0000
    428 C         150.7537  151.2819  115.9901 C.3      29        0    0.0000
    429 H         149.6462  148.6648  116.9750 H        29        0    0.0000
    430 H         149.5010  148.9178  115.2264 H        29        0    0.0000
    431 H         147.2825  148.1810  115.8667 H        29        0    0.0000
    432 H         147.3062  149.1924  117.3224 H        29        0    0.0000
    433 H         147.2525  150.0506  114.3942 H        29        0    0.0000
    434 H         145.5360  151.0407  116.6956 H        29        0    0.0000
    435 H         145.4457  151.5807  115.0236 H        29        0    0.0000
    436 H         147.7831  152.2382  116.3708 H        29        0    0.0000
    437 H         148.4420  151.9319  114.7746 H        29        0    0.0000
    438 H         149.2761  150.9603  117.4827 H        29        0    0.0000
    439 H         150.6297  152.0666  115.2345 H        29        0    0.0000
    440 H         151.2348  151.7517  116.8562 H        29        0    0.0000
    441 C         150.6354  146.8252  116.7624 C.3      30        0    0.0000
    442 C         150.3230  148.2235  116.2519 C.3      30        0    0.0000
    443 C         151.6926  148.9056  116.2610 C.3      30        0    0.0000
    444 C         151.7052  150.1861  115.4224 C.3      30        0    0.0000
    445 C         152.6525  147.8058  115.7715 C.3      30        0    0.0000
    446 C         151.9411  146.4642  116.0429 C.3      30        0    0.0000
    447 C         152.7957  145.3941  116.7338 C.3      30        0    0.0000
    448 H         149.8327  146.1175  116.5325 H        30        0    0.0000
    449 H         150.7570  146.8516  117.8507 H        30        0    0.0000
    450 H         149.9122  148.1739  115.2361 H        30        0    0.0000
    451 H         149.5991  148.7402  116.8894 H        30        0    0.0000
    452 H         151.9500  149.1470  117.3026 H        30        0    0.0000
    453 H         152.7234  150.5883  115.3614 H        30        0    0.0000
    454 H         151.3980  149.9504  114.3965 H        30        0    0.0000
    455 H         152.8441  147.8968  114.6950 H        30        0    0.0000
    456 H         153.6221  147.8873  116.2739 H        30        0    0.0000
    457 H         151.6635  146.0523  115.0612 H        30        0    0.0000
    458 H         152.7052  144.4515  116.1812 H        30        0    0.0000
    459 H         152.3927  145.2100  117.7369 H        30        0    0.0000
    460 C         154.6542  149.1930  118.4237 C.3      31        0    0.0000
    461 C         153.8026  147.9703  118.1181 C.3      31        0    0.0000
    462 C         154.5807  147.2613  117.0023 C.3      31        0    0.0000
    463 C         154.3026  145.7593  116.8621 C.3      31        0    0.0000
    464 C         156.0596  147.6434  117.2175 C.3      31        0    0.0000
    465 C         156.0784  148.6344  118.3957 C.3      31        0    0.0000
    466 C         157.1302  149.7410  118.2848 C.3      31        0    0.0000
    467 H         154.5133  149.9570  117.6495 H        31        0    0.0000
    468 H         154.4023  149.6359  119.3922 H        31        0    0.0000
    469 H         153.7142  147.3516  119.0177 H        31        0    0.0000
    470 H         152.7919  148.2454  117.8005 H        31        0    0.0000
    471 H         154.2725  147.7231  116.0525 H        31        0    0.0000
    472 H         154.8317  145.3805  115.9796 H        31        0    0.0000
    473 H         154.7220  145.2349  117.7289 H        31        0    0.0000
    474 H         156.4449  148.1084  116.3016 H        31        0    0.0000
    475 H         156.7000  146.7803  117.4282 H        31        0    0.0000
    476 H         156.2427  148.0638  119.3214 H        31        0    0.0000
    477 H         156.6434  150.7118  118.1344 H        31        0    0.0000
    478 H         157.6845  149.8097  119.2283 H        31        0    0.0000
    479 C         158.1401  149.4902  117.1299 C.3      32        0    0.0000
    480 C         158.1214  150.5708  116.0393 C.3      32        0    0.0000
    481 H         159.1406  149.4789  117.5809 H        32        0    0.0000
    482 H         157.9761  148.4926  116.7059 H        32        0    0.0000
    483 H         157.1962  150.5295  115.4526 H        32        0    0.0000
    484 H         158.1372  151.5516  116.5315 H        32        0    0.0000
    485 C         161.2353  148.1737  117.1792 C.3      33        0    0.0000
    486 C         159.8796  148.5181  116.5643 C.3      33        0    0.0000
    487 C         160.1680  149.2323  115.2324 C.3      33        0    0.0000
    488 C         159.3593  150.5269  115.0778 C.3      33        0    0.0000
    489 C         161.6904  149.4400  115.2218 C.3      33        0    0.0000
    490 C         162.2534  148.2710  116.0401 C.3      33        0    0.0000
    491 C         162.3631  146.9492  115.2584 C.3      33        0    0.0000
    492 H         161.4777  148.9214  117.9451 H        33        0    0.0000
    493 H         161.2272  147.1966  117.6724 H        33        0    0.0000
    494 H         159.2902  149.1289  117.2568 H        33        0    0.0000
    495 H         159.3063  147.6031  116.3741 H        33        0    0.0000
    496 H         159.9025  148.5447  114.4170 H        33        0    0.0000
    497 H         159.0252  150.6457  114.0405 H        33        0    0.0000
    498 H         160.0034  151.3854  115.3031 H        33        0    0.0000
    499 H         162.0913  149.4849  114.2045 H        33        0    0.0000
    500 H         161.9494  150.3838  115.7191 H        33        0    0.0000
    501 H         163.2385  148.5336  116.4464 H        33        0    0.0000
    502 H         162.4364  147.1297  114.1806 H        33        0    0.0000
    503 H         161.4516  146.3600  115.4160 H        33        0    0.0000
    504 C         166.1592  148.8425  115.6998 C.3      34        0    0.0000
    505 C         164.7437  148.3342  115.4727 C.3      34        0    0.0000
    506 C         164.9114  146.8146  115.5332 C.3      34        0    0.0000
    507 C         163.5748  146.0937  115.7252 C.3      34        0    0.0000
    508 C         165.9263  146.6034  116.6716 C.3      34        0    0.0000
    509 C         166.6911  147.9352  116.8165 C.3      34        0    0.0000
    510 C         168.2184  147.8126  116.8894 C.3      34        0    0.0000
    511 H         166.1728  149.8979  115.9893 H        34        0    0.0000
    512 H         166.7372  148.7414  114.7748 H        34        0    0.0000
    513 H         164.0797  148.6913  116.2693 H        34        0    0.0000
    514 H         164.3377  148.6679  114.5129 H        34        0    0.0000
    515 H         165.3758  146.4818  114.5935 H        34        0    0.0000
    516 H         163.5766  145.1423  115.1801 H        34        0    0.0000
    517 H         163.4446  145.8483  116.7859 H        34        0    0.0000
    518 H         165.4195  146.3781  117.6182 H        34        0    0.0000
    519 H         166.5813  145.7535  116.4528 H        34        0    0.0000
    520 H         166.3702  148.3788  117.7708 H        34        0    0.0000
    521 H         168.5864  148.4149  117.7284 H        34        0    0.0000
    522 H         168.6536  148.2426  115.9794 H        34        0    0.0000
    523 C         166.1125  143.8786  118.1428 C.3      35        0    0.0000
    524 C         166.5090  145.2171  117.5143 C.3      35        0    0.0000
    525 C         167.9084  145.5467  118.0501 C.3      35        0    0.0000
    526 C         168.7391  146.3553  117.0497 C.3      35        0    0.0000
    527 C         168.4842  144.1683  118.3913 C.3      35        0    0.0000
    528 C         167.2889  143.4552  119.0321 C.3      35        0    0.0000
    529 C         167.4293  141.9333  119.1260 C.3      35        0    0.0000
    530 H         165.1906  143.9684  118.7274 H        35        0    0.0000
    531 H         165.9243  143.1447  117.3500 H        35        0    0.0000
    532 H         165.7944  146.0067  117.7704 H        35        0    0.0000
    533 H         166.5097  145.1215  116.4219 H        35        0    0.0000
    534 H         167.7925  146.1189  118.9821 H        35        0    0.0000
    535 H         168.7056  145.8634  116.0702 H        35        0    0.0000
    536 H         169.7911  146.3755  117.3575 H        35        0    0.0000
    537 H         169.3344  144.2386  119.0772 H        35        0    0.0000
    538 H         168.8142  143.6451  117.4851 H        35        0    0.0000
    539 H         167.1276  143.8741  120.0361 H        35        0    0.0000
    540 H         167.0241  141.4577  118.2252 H        35        0    0.0000
    541 H         166.8352  141.5665  119.9716 H        35        0    0.0000
    542 C         171.1093  144.4464  118.4216 C.3      36        0    0.0000
    543 C         169.7794  143.7113  118.3304 C.3      36        0    0.0000
    544 C         169.9038  142.6433  119.4219 C.3      36        0    0.0000
    545 C         168.9035  141.4871  119.3276 C.3      36        0    0.0000
    546 C         171.3905  142.2370  119.4246 C.3      36        0    0.0000
    547 C         172.1193  143.3062  118.5873 C.3      36        0    0.0000
    548 C         173.5004  143.7212  119.1037 C.3      36        0    0.0000
    549 H         171.3078  145.0449  117.5270 H        36        0    0.0000
    550 H         171.1017  145.1192  119.2862 H        36        0    0.0000
    551 H         168.9302  144.3795  118.5038 H        36        0    0.0000
    552 H         169.6677  143.2708  117.3335 H        36        0    0.0000
    553 H         169.7117  143.1450  120.3824 H        36        0    0.0000
    554 H         169.1902  140.8326  118.4960 H        36        0    0.0000
    555 H         168.9669  140.8829  120.2403 H        36        0    0.0000
    556 H         171.5625  141.2484  118.9855 H        36        0    0.0000
    557 H         171.7537  142.1840  120.4566 H        36        0    0.0000
    558 H         172.2769  142.8720  117.5884 H        36        0    0.0000
    559 H         173.9988  144.3323  118.3419 H        36        0    0.0000
    560 H         173.3760  144.3588  119.9871 H        36        0    0.0000
    561 C         174.7671  140.6802  116.2740 C.3      37        0    0.0000
    562 C         173.9236  141.6535  117.1012 C.3      37        0    0.0000
    563 C         174.1766  141.3084  118.5797 C.3      37        0    0.0000
    564 C         174.4305  142.5274  119.4751 C.3      37        0    0.0000
    565 C         175.3701  140.3483  118.5490 C.3      37        0    0.0000
    566 C         175.2076  139.5727  117.2374 C.3      37        0    0.0000
    567 C         174.1824  138.4289  117.3544 C.3      37        0    0.0000
    568 H         174.2238  140.3132  115.3981 H        37        0    0.0000
    569 H         175.6548  141.2088  115.9037 H        37        0    0.0000
    570 H         174.1921  142.6864  116.8532 H        37        0    0.0000
    571 H         172.8597  141.5304  116.8671 H        37        0    0.0000
    572 H         173.3045  140.7569  118.9592 H        37        0    0.0000
    573 H         174.2457  142.2545  120.5210 H        37        0    0.0000
    574 H         175.4791  142.8395  119.4088 H        37        0    0.0000
    575 H         175.3946  139.6964  119.4283 H        37        0    0.0000
    576 H         176.3124  140.9108  118.5270 H        37        0    0.0000
    577 H         176.1781  139.1632  116.9295 H        37        0    0.0000
    578 H         173.6662  138.2612  116.4026 H        37        0    0.0000
    579 H         173.4154  138.7014  118.0890 H        37        0    0.0000
    580 C         177.0930  136.9152  120.8658 C.3      38        0    0.0000
    581 C         175.7699  137.3168  120.2322 C.3      38        0    0.0000
    582 C         176.0699  137.2901  118.7281 C.3      38        0    0.0000
    583 C         174.8485  137.1015  117.8196 C.3      38        0    0.0000
    584 C         177.1969  136.2526  118.5460 C.3      38        0    0.0000
    585 C         177.5754  135.7793  119.9613 C.3      38        0    0.0000
    586 C         179.0628  135.4764  120.1587 C.3      38        0    0.0000
    587 H         177.7935  137.7591  120.8493 H        38        0    0.0000
    588 H         176.9689  136.5931  121.9042 H        38        0    0.0000
    589 H         174.9957  136.5941  120.5119 H        38        0    0.0000
    590 H         175.4406  138.3059  120.5659 H        38        0    0.0000
    591 H         176.5001  138.2691  118.4690 H        38        0    0.0000
    592 H         175.1492  136.5304  116.9331 H        38        0    0.0000
    593 H         174.1013  136.4951  118.3452 H        38        0    0.0000
    594 H         178.0477  136.7337  118.0476 H        38        0    0.0000
    595 H         176.9020  135.4035  117.9204 H        38        0    0.0000
    596 H         176.9845  134.8809  120.1921 H        38        0    0.0000
    597 H         179.6299  136.4102  120.2512 H        38        0    0.0000
    598 H         179.1996  134.9307  121.0998 H        38        0    0.0000
    599 C         183.4549  134.7816  119.0419 C.3      39        0    0.0000
    600 C         182.1022  135.4308  119.2989 C.3      39        0    0.0000
    601 C         181.1304  134.2515  119.1867 C.3      39        0    0.0000
    602 C         179.6577  134.6288  118.9993 C.3      39        0    0.0000
    603 C         181.7258  133.3372  118.0982 C.3      39        0    0.0000
    604 C         183.1646  133.8399  117.8687 C.3      39        0    0.0000
    605 C         184.2136  132.7507  117.6247 C.3      39        0    0.0000
    606 H         184.2230  135.5211  118.7953 H        39        0    0.0000
    607 H         183.7803  134.2381  119.9358 H        39        0    0.0000
    608 H         182.0580  135.9079  120.2829 H        39        0    0.0000
    609 H         181.9095  136.1973  118.5402 H        39        0    0.0000
    610 H         181.1923  133.6959  120.1346 H        39        0    0.0000
    611 H         179.5477  135.1873  118.0622 H        39        0    0.0000
    612 H         179.0640  133.7132  118.8918 H        39        0    0.0000
    613 H         181.1689  133.3787  117.1559 H        39        0    0.0000
    614 H         181.6873  132.2953  118.4341 H        39        0    0.0000
    615 H         183.1413  134.4602  116.9600 H        39        0    0.0000
    616 H         184.9338  133.1078  116.8791 H        39        0    0.0000
    617 H         184.7763  132.5813  118.5504 H        39        0    0.0000
    618 C         185.3303  128.3534  115.8627 C.3      40        0    0.0000
    619 C         185.4027  129.5507  116.8136 C.3      40        0    0.0000
    620 C         184.5712  130.6748  116.1700 C.3      40        0    0.0000
    621 C         183.6248  131.3914  117.1411 C.3      40        0    0.0000
    622 C         183.8208  129.9871  115.0249 C.3      40        0    0.0000
    623 C         184.7774  128.8929  114.5391 C.3      40        0    0.0000
    624 C         185.8722  129.4420  113.6046 C.3      40        0    0.0000
    625 H         186.2976  127.8515  115.7654 H        40        0    0.0000
    626 H         184.6264  127.6182  116.2735 H        40        0    0.0000
    627 H         185.0358  129.2644  117.8054 H        40        0    0.0000
    628 H         186.4415  129.8792  116.9350 H        40        0    0.0000
    629 H         185.2632  131.4085  115.7325 H        40        0    0.0000
    630 H         182.6687  131.5848  116.6402 H        40        0    0.0000
    631 H         183.4073  130.7529  118.0051 H        40        0    0.0000
    632 H         183.5443  130.6920  114.2341 H        40        0    0.0000
    633 H         182.8963  129.5262  115.3963 H        40        0    0.0000
    634 H         184.2092  128.1126  114.0169 H        40        0    0.0000
    635 H         186.1629  130.4590  113.8905 H        40        0    0.0000
    636 H         185.4826  129.4978  112.5812 H        40        0    0.0000
    637 C         190.2552  130.5153  113.3062 C.3      41        0    0.0000
    638 C         188.7250  130.5353  113.2767 C.3      41        0    0.0000
    639 C         188.2762  129.1492  112.7801 C.3      41        0    0.0000
    640 C         187.1331  128.5299  113.5937 C.3      41        0    0.0000
    641 C         189.5494  128.2981  112.8214 C.3      41        0    0.0000
    642 C         190.6811  129.2812  112.5035 C.3      41        0    0.0000
    643 C         190.8130  129.5569  110.9936 C.3      41        0    0.0000
    644 H         190.6820  131.4521  112.9355 H        41        0    0.0000
    645 H         190.5869  130.4001  114.3460 H        41        0    0.0000
    646 H         188.3340  130.7784  114.2709 H        41        0    0.0000
    647 H         188.3667  131.3107  112.5894 H        41        0    0.0000
    648 H         187.9627  129.2437  111.7306 H        41        0    0.0000
    649 H         186.8589  127.5624  113.1565 H        41        0    0.0000
    650 H         187.4577  128.3333  114.6220 H        41        0    0.0000
    651 H         189.5049  127.4594  112.1191 H        41        0    0.0000
    652 H         189.6981  127.8816  113.8261 H        41        0    0.0000
    653 H         191.6304  128.8860  112.8869 H        41        0    0.0000
    654 H         191.0848  130.6013  110.8043 H        41        0    0.0000
    655 H         189.8455  129.3863  110.5067 H        41        0    0.0000
    656 C         191.0953  126.3766  113.1253 C.3      42        0    0.0000
    657 C         190.6145  126.9473  111.7921 C.3      42        0    0.0000
    658 C         191.8727  127.2211  110.9502 C.3      42        0    0.0000
    659 C         191.8629  128.6225  110.3254 C.3      42        0    0.0000
    660 C         193.0469  126.9714  111.9091 C.3      42        0    0.0000
    661 C         192.5346  125.9106  112.8916 C.3      42        0    0.0000
    662 C         192.5871  124.4707  112.3489 C.3      42        0    0.0000
    663 H         191.0923  127.1775  113.8758 H        42        0    0.0000
    664 H         190.4368  125.5845  113.4954 H        42        0    0.0000
    665 H         190.0082  127.8447  111.9571 H        42        0    0.0000
    666 H         189.9779  126.2192  111.2757 H        42        0    0.0000
    667 H         191.9106  126.4715  110.1471 H        42        0    0.0000
    668 H         191.6674  128.5582  109.2487 H        42        0    0.0000
    669 H         192.8542  129.0772  110.4405 H        42        0    0.0000
    670 H         193.9525  126.6632  111.3776 H        42        0    0.0000
    671 H         193.2873  127.8879  112.4637 H        42        0    0.0000
    672 H         193.0974  125.9631  113.8323 H        42        0    0.0000
    673 H         192.4912  124.4534  111.2579 H        42        0    0.0000
    674 H         191.7367  123.9038  112.7470 H        42        0    0.0000
    675 C         193.8922  123.7362  112.7672 C.3      43        0    0.0000
    676 C         194.9548  123.6736  111.6607 C.3      43        0    0.0000
    677 H         194.3134  124.2954  113.6124 H        43        0    0.0000
    678 H         193.6488  122.7357  113.1434 H        43        0    0.0000
    679 H         194.8450  122.7678  111.0529 H        43        0    0.0000
    680 H         194.7950  124.5250  110.9866 H        43        0    0.0000
    681 C         198.8758  121.3258  110.6300 C.3      44        0    0.0000
    682 C         197.5251  121.6236  111.2658 C.3      44        0    0.0000
    683 C         197.4745  123.1550  111.2591 C.3      44        0    0.0000
    684 C         196.4284  123.7823  112.1855 C.3      44        0    0.0000
    685 C         198.9281  123.6100  111.4937 C.3      44        0    0.0000
    686 C         199.7989  122.3546  111.2911 C.3      44        0    0.0000
    687 C         201.1378  122.5867  110.5842 C.3      44        0    0.0000
    688 H         199.2005  120.2985  110.8223 H        44        0    0.0000
    689 H         198.8130  121.4654  109.5452 H        44        0    0.0000
    690 H         196.6999  121.1824  110.6982 H        44        0    0.0000
    691 H         197.4961  121.2147  112.2818 H        44        0    0.0000
    692 H         197.2090  123.4608  110.2358 H        44        0    0.0000
    693 H         196.4880  123.3025  113.1696 H        44        0    0.0000
    694 H         196.6715  124.8408  112.3359 H        44        0    0.0000
    695 H         199.0917  124.0104  112.5001 H        44        0    0.0000
    696 H         199.1761  124.4173  110.7962 H        44        0    0.0000
    697 H         200.0379  121.9705  112.2944 H        44        0    0.0000
    698 H         201.9482  122.2106  111.2198 H        44        0    0.0000
    699 H         201.1624  121.9965  109.6604 H        44        0    0.0000
    700 C         198.5321  125.8212  108.5589 C.3      45        0    0.0000
    701 C         199.0944  124.6777  109.4073 C.3      45        0    0.0000
    702 C         200.5841  124.5726  109.0553 C.3      45        0    0.0000
    703 C         201.4270  124.0772  110.2337 C.3      45        0    0.0000
    704 C         200.9286  125.9858  108.5734 C.3      45        0    0.0000
    705 C         199.7054  126.3595  107.7295 C.3      45        0    0.0000
    706 C         199.5692  127.8550  107.4306 C.3      45        0    0.0000
    707 H         197.7188  125.4766  107.9112 H        45        0    0.0000
    708 H         198.1178  126.5944  109.2169 H        45        0    0.0000
    709 H         198.5752  123.7351  109.2031 H        45        0    0.0000
    710 H         198.9482  124.9056  110.4699 H        45        0    0.0000
    711 H         200.6880  123.8783  108.2088 H        45        0    0.0000
    712 H         201.2115  124.6911  111.1164 H        45        0    0.0000
    713 H         202.4944  124.2003  110.0161 H        45        0    0.0000
    714 H         201.8519  126.0037  107.9856 H        45        0    0.0000
    715 H         201.0457  126.6724  109.4212 H        45        0    0.0000
    716 H         199.7449  125.7960  106.7859 H        45        0    0.0000
    717 H         199.9175  128.4469  108.2852 H        45        0    0.0000
    718 H         198.5101  128.1004  107.2869 H        45        0    0.0000
    719 C         199.2377  131.6249  104.7777 C.3      46        0    0.0000
    720 C         199.3793  130.6703  105.9534 C.3      46        0    0.0000
    721 C         199.6308  129.3129  105.2847 C.3      46        0    0.0000
    722 C         200.3513  128.2766  106.1565 C.3      46        0    0.0000
    723 C         200.3102  129.6313  103.9370 C.3      46        0    0.0000
    724 C         200.3469  131.1667  103.8287 C.3      46        0    0.0000
    725 C         200.1565  131.7133  102.4116 C.3      46        0    0.0000
    726 H         198.2496  131.5133  104.3148 H        46        0    0.0000
    727 H         199.3580  132.6694  105.0812 H        46        0    0.0000
    728 H         200.2208  130.9842  106.5804 H        46        0    0.0000
    729 H         198.4818  130.6576  106.5797 H        46        0    0.0000
    730 H         198.6456  128.8851  105.0460 H        46        0    0.0000
    731 H         200.5499  127.3818  105.5546 H        46        0    0.0000
    732 H         201.3273  128.6768  106.4558 H        46        0    0.0000
    733 H         199.7176  129.1903  103.1257 H        46        0    0.0000
    734 H         201.3193  129.2137  103.8553 H        46        0    0.0000
    735 H         201.3095  131.5159  104.2300 H        46        0    0.0000
    736 H         199.4566  132.5572  102.4226 H        46        0    0.0000
    737 H         201.1126  132.1023  102.0418 H        46        0    0.0000
    738 C         200.0423  131.5228   97.7471 C.3      47        0    0.0000
    739 C         200.2237  130.5432   98.8981 C.3      47        0    0.0000
    740 C         199.3628  131.1562  100.0075 C.3      47        0    0.0000
    741 C         199.6404  130.6329  101.4201 C.3      47        0    0.0000
    742 C         199.4931  132.6812   99.8263 C.3      47        0    0.0000
    743 C         200.1359  132.8859   98.4406 C.3      47        0    0.0000
    744 C         199.6006  134.0724   97.6331 C.3      47        0    0.0000
    745 H         200.8120  131.3983   96.9792 H        47        0    0.0000
    746 H         199.0649  131.3654   97.2778 H        47        0    0.0000
    747 H         199.8941  129.5341   98.6320 H        47        0    0.0000
    748 H         201.2818  130.4928   99.1778 H        47        0    0.0000
    749 H         198.3175  130.8991   99.7789 H        47        0    0.0000
    750 H         198.7218  130.1927  101.8257 H        47        0    0.0000
    751 H         200.3791  129.8246  101.3642 H        47        0    0.0000
    752 H         200.1198  133.1490  100.5932 H        47        0    0.0000
    753 H         198.5045  133.1455   99.9099 H        47        0    0.0000
    754 H         201.2046  133.0827   98.6140 H        47        0    0.0000
    755 H         200.1753  134.9697   97.8917 H        47        0    0.0000
    756 H         199.7710  133.8858   96.5662 H        47        0    0.0000
    757 C         196.4044  135.4191   94.6270 C.3      48        0    0.0000
    758 C         197.5554  134.7299   95.3440 C.3      48        0    0.0000
    759 C         197.4509  135.2585   96.7802 C.3      48        0    0.0000
    760 C         198.0865  134.3667   97.8543 C.3      48        0    0.0000
    761 C         195.9602  135.5924   96.9943 C.3      48        0    0.0000
    762 C         195.2655  135.3325   95.6451 C.3      48        0    0.0000
    763 C         194.1234  136.2972   95.3168 C.3      48        0    0.0000
    764 H         196.6627  136.4627   94.4098 H        48        0    0.0000
    765 H         196.1546  134.9243   93.6835 H        48        0    0.0000
    766 H         197.4211  133.6441   95.2925 H        48        0    0.0000
    767 H         198.5218  134.9695   94.8895 H        48        0    0.0000
    768 H         197.9940  136.2148   96.8108 H        48        0    0.0000
    769 H         197.9613  134.8446   98.8333 H        48        0    0.0000
    770 H         197.5431  133.4153   97.8976 H        48        0    0.0000
    771 H         195.8693  136.6447   97.2913 H        48        0    0.0000
    772 H         195.4966  134.9980   97.7887 H        48        0    0.0000
    773 H         194.8845  134.3009   95.6486 H        48        0    0.0000
    774 H         193.6611  136.0247   94.3607 H        48        0    0.0000
    775 H         193.3422  136.2072   96.0809 H        48        0    0.0000
    776 C         196.4665  139.4420   97.3759 C.3      49        0    0.0000
    777 C         195.4761  138.2920   97.5783 C.3      49        0    0.0000
    778 C         194.3345  138.5181   96.5809 C.3      49        0    0.0000
    779 C         194.5926  137.7780   95.2549 C.3      49        0    0.0000
    780 C         194.3109  140.0471   96.4608 C.3      49        0    0.0000
    781 C         195.7878  140.4488   96.4324 C.3      49        0    0.0000
    782 C         195.9998  141.9184   96.8131 C.3      49        0    0.0000
    783 H         196.7230  139.8842   98.3453 H        49        0    0.0000
    784 H         197.3979  139.0745   96.9303 H        49        0    0.0000
    785 H         195.0795  138.3428   98.6002 H        49        0    0.0000
    786 H         195.9569  137.3145   97.4699 H        49        0    0.0000
    787 H         193.3896  138.1606   97.0100 H        49        0    0.0000
    788 H         195.6679  137.7892   95.0395 H        49        0    0.0000
    789 H         194.1009  138.2822   94.4162 H        49        0    0.0000
    790 H         193.8178  140.4734   97.3443 H        49        0    0.0000
    791 H         193.7731  140.4089   95.5794 H        49        0    0.0000
    792 H         196.1723  140.2841   95.4160 H        49        0    0.0000
    793 H         195.9402  142.5554   95.9229 H        49        0    0.0000
    794 H         197.0066  142.0454   97.2282 H        49        0    0.0000
    795 C         194.9609  142.3988   97.8668 C.3      50        0    0.0000
    796 C         195.4498  142.2927   99.3183 C.3      50        0    0.0000
    797 H         194.7577  143.4558   97.6523 H        50        0    0.0000
    798 H         194.0152  141.8627   97.7242 H        50        0    0.0000
    799 H         196.5265  142.0907   99.3628 H        50        0    0.0000
    800 H         195.2928  143.2652   99.8024 H        50        0    0.0000
    801 C         191.1194  141.1685   98.8743 C.3      51        0    0.0000
    802 C         192.5547  141.6567   98.7503 C.3      51        0    0.0000
    803 C         193.1504  141.3743  100.1353 C.3      51        0    0.0000
    804 C         194.6771  141.2307  100.1750 C.3      51        0    0.0000
    805 C         192.3580  140.1741  100.6933 C.3      51        0    0.0000
    806 C         191.2688  139.8591   99.6516 C.3      51        0    0.0000
    807 C         189.9387  139.3825  100.2403 C.3      51        0    0.0000
    808 H         190.5183  141.8951   99.4345 H        51        0    0.0000
    809 H         190.6519  141.0183   97.8964 H        51        0    0.0000
    810 H         193.0647  141.0967   97.9591 H        51        0    0.0000
    811 H         192.6039  142.7195   98.4931 H        51        0    0.0000
    812 H         192.9039  142.2364  100.7729 H        51        0    0.0000
    813 H         195.0146  141.3065  101.2155 H        51        0    0.0000
    814 H         194.9518  140.2275   99.8280 H        51        0    0.0000
    815 H         191.9159  140.4554  101.6571 H        51        0    0.0000
    816 H         192.9836  139.2941  100.8765 H        51        0    0.0000
    817 H         191.6612  139.0943   98.9656 H        51        0    0.0000
    818 H         189.1721  140.1568  100.1186 H        51        0    0.0000
    819 H         189.5901  138.5044   99.6837 H        51        0    0.0000
    820 C         191.5248  141.7654  102.7457 C.3      52        0    0.0000
    821 C         191.9635  140.6776  101.7617 C.3      52        0    0.0000
    822 C         191.4409  139.3486  102.3181 C.3      52        0    0.0000
    823 C         190.0528  139.0069  101.7445 C.3      52        0    0.0000
    824 C         191.4578  139.6046  103.8304 C.3      52        0    0.0000
    825 C         190.9551  141.0430  103.9778 C.3      52        0    0.0000
    826 C         191.3549  141.6657  105.3203 C.3      52        0    0.0000
    827 H         192.3786  142.4061  102.9938 H        52        0    0.0000
    828 H         190.7584  142.4064  102.2951 H        52        0    0.0000
    829 H         193.0601  140.6508  101.7304 H        52        0    0.0000
    830 H         191.6193  140.8845  100.7433 H        52        0    0.0000
    831 H         192.1389  138.5398  102.0664 H        52        0    0.0000
    832 H         189.2872  139.5648  102.2972 H        52        0    0.0000
    833 H         189.8197  137.9446  101.8744 H        52        0    0.0000
    834 H         192.4878  139.5218  104.2014 H        52        0    0.0000
    835 H         190.8466  138.8988  104.4009 H        52        0    0.0000
    836 H         189.8588  141.0368  103.8993 H        52        0    0.0000
    837 H         191.1069  142.7334  105.3343 H        52        0    0.0000
    838 H         192.4412  141.5898  105.4476 H        52        0    0.0000
    839 C         190.6608  140.9547  106.5174 C.3      53        0    0.0000
    840 C         190.1407  141.9147  107.5968 C.3      53        0    0.0000
    841 H         191.4132  140.3010  106.9770 H        53        0    0.0000
    842 H         189.8625  140.3012  106.1465 H        53        0    0.0000
    843 H         190.9871  142.2012  108.2341 H        53        0    0.0000
    844 H         189.7540  142.8404  107.1545 H        53        0    0.0000
    845 C         189.7380  137.7567  109.6850 C.3      54        0    0.0000
    846 C         190.1414  139.2152  109.5311 C.3      54        0    0.0000
    847 C         189.1013  139.7565  108.5480 C.3      54        0    0.0000
    848 C         189.0566  141.2865  108.5394 C.3      54        0    0.0000
    849 C         187.7922  139.0764  108.9888 C.3      54        0    0.0000
    850 C         188.2078  137.8155  109.7743 C.3      54        0    0.0000
    851 C         187.4785  136.5247  109.3806 C.3      54        0    0.0000
    852 H         190.1823  137.3018  110.5759 H        54        0    0.0000
    853 H         190.0794  137.1885  108.8131 H        54        0    0.0000
    854 H         190.0786  139.7306  110.4973 H        54        0    0.0000
    855 H         191.1627  139.3200  109.1525 H        54        0    0.0000
    856 H         189.3557  139.3915  107.5422 H        54        0    0.0000
    857 H         188.0638  141.6341  108.2301 H        54        0    0.0000
    858 H         189.2171  141.6593  109.5581 H        54        0    0.0000
    859 H         187.2075  139.7306  109.6475 H        54        0    0.0000
    860 H         187.1613  138.8539  108.1219 H        54        0    0.0000
    861 H         187.9546  138.0049  110.8282 H        54        0    0.0000
    862 H         188.1367  135.6688  109.5716 H        54        0    0.0000
    863 H         187.2874  136.5392  108.3009 H        54        0    0.0000
    864 C         186.9147  137.2979  113.6903 C.3      55        0    0.0000
    865 C         187.3747  137.0730  112.2581 C.3      55        0    0.0000
    866 C         186.2503  136.2256  111.6493 C.3      55        0    0.0000
    867 C         186.1297  136.2972  110.1218 C.3      55        0    0.0000
    868 C         184.9751  136.6001  112.4323 C.3      55        0    0.0000
    869 C         185.4204  137.5844  113.5293 C.3      55        0    0.0000
    870 C         184.6619  137.4542  114.8525 C.3      55        0    0.0000
    871 H         187.0823  136.3944  114.2893 H        55        0    0.0000
    872 H         187.4464  138.1278  114.1658 H        55        0    0.0000
    873 H         187.4842  138.0386  111.7528 H        55        0    0.0000
    874 H         188.3414  136.5613  112.2151 H        55        0    0.0000
    875 H         186.4712  135.1758  111.8934 H        55        0    0.0000
    876 H         185.6813  135.3656  109.7563 H        55        0    0.0000
    877 H         185.4377  137.1046  109.8546 H        55        0    0.0000
    878 H         184.5432  135.6902  112.8671 H        55        0    0.0000
    879 H         184.2001  137.0487  111.8019 H        55        0    0.0000
    880 H         185.3058  138.6066  113.1401 H        55        0    0.0000
    881 H         185.3458  137.1443  115.6515 H        55        0    0.0000
    882 H         184.2653  138.4350  115.1407 H        55        0    0.0000
    883 C         183.4830  136.4446  114.7673 C.3      56        0    0.0000
    884 C         182.0959  137.1029  114.7772 C.3      56        0    0.0000
    885 H         183.5578  135.7950  115.6487 H        56        0    0.0000
    886 H         183.6120  135.7992  113.8905 H        56        0    0.0000
    887 H         182.0675  137.8248  115.6034 H        56        0    0.0000
    888 H         181.9180  137.6723  113.8573 H        56        0    0.0000
    889 C         183.1188  133.2883  116.0246 C.3      57        0    0.0000
    890 C         182.9044  134.4554  115.0577 C.3      57        0    0.0000
    891 C         181.3824  134.6402  114.9214 C.3      57        0    0.0000
    892 C         180.9155  136.0981  115.0133 C.3      57        0    0.0000
    893 C         180.7906  133.7670  116.0325 C.3      57        0    0.0000
    894 C         181.7619  132.5880  116.1551 C.3      57        0    0.0000
    895 C         181.5263  131.5177  115.0725 C.3      57        0    0.0000
    896 H         183.9263  132.6284  115.6937 H        57        0    0.0000
    897 H         183.4120  133.6897  117.0031 H        57        0    0.0000
    898 H         183.4099  135.3516  115.4340 H        57        0    0.0000
    899 H         183.3403  134.2247  114.0786 H        57        0    0.0000
    900 H         181.0692  134.2208  113.9546 H        57        0    0.0000
    901 H         180.1455  136.2814  114.2544 H        57        0    0.0000
    902 H         180.4531  136.2915  115.9881 H        57        0    0.0000
    903 H         179.7667  133.4526  115.8056 H        57        0    0.0000
    904 H         180.7652  134.3201  116.9804 H        57        0    0.0000
    905 H         181.6625  132.1311  117.1480 H        57        0    0.0000
    906 H         180.6063  131.7175  114.5121 H        57        0    0.0000
    907 H         181.4023  130.5383  115.5498 H        57        0    0.0000
    908 C         182.7228  131.4253  114.0816 C.3      58        0    0.0000
    909 C         182.3103  131.1424  112.6300 C.3      58        0    0.0000
    910 H         183.2315  132.3975  114.1077 H        58        0    0.0000
    911 H         183.4451  130.6839  114.4427 H        58        0    0.0000
    912 H         181.2260  131.2360  112.4980 H        58        0    0.0000
    913 H         182.7713  131.9058  111.9901 H        58        0    0.0000
    914 C         183.6302  127.1838  113.9583 C.3      59        0    0.0000
    915 C         182.8159  127.2779  112.6651 C.3      59        0    0.0000
    916 C         182.0210  128.5860  112.7435 C.3      59        0    0.0000
    917 C         182.7900  129.7503  112.0911 C.3      59        0    0.0000
    918 C         181.8003  128.7376  114.2539 C.3      59        0    0.0000
    919 C         183.1321  128.3118  114.8771 C.3      59        0    0.0000
    920 C         182.9856  127.9130  116.3500 C.3      59        0    0.0000
    921 H         183.5007  126.1917  114.4056 H        59        0    0.0000
    922 H         184.6990  127.3091  113.7507 H        59        0    0.0000
    923 H         182.1180  126.4320  112.6245 H        59        0    0.0000
    924 H         183.4514  127.2115  111.7761 H        59        0    0.0000
    925 H         181.0566  128.4662  112.2334 H        59        0    0.0000
    926 H         182.6274  129.7267  111.0067 H        59        0    0.0000
    927 H         183.8694  129.6504  112.2472 H        59        0    0.0000
    928 H         180.9972  128.0608  114.5735 H        59        0    0.0000
    929 H         181.5146  129.7499  114.5552 H        59        0    0.0000
    930 H         183.8345  129.1539  114.8032 H        59        0    0.0000
    931 H         181.9261  127.8459  116.6233 H        59        0    0.0000
    932 H         183.4288  128.6905  116.9834 H        59        0    0.0000
    933 C         185.6020  125.2171  119.6369 C.3      60        0    0.0000
    934 C         184.3754  125.1787  118.7383 C.3      60        0    0.0000
    935 C         184.4326  126.5200  117.9962 C.3      60        0    0.0000
    936 C         183.6884  126.5591  116.6554 C.3      60        0    0.0000
    937 C         185.9265  126.8996  117.9353 C.3      60        0    0.0000
    938 C         186.6769  125.8111  118.7244 C.3      60        0    0.0000
    939 C         187.8898  126.3127  119.5119 C.3      60        0    0.0000
    940 H         185.4175  125.8631  120.5039 H        60        0    0.0000
    941 H         185.8732  124.2220  120.0026 H        60        0    0.0000
    942 H         184.4483  124.3253  118.0555 H        60        0    0.0000
    943 H         183.4507  125.0689  119.3136 H        60        0    0.0000
    944 H         183.9456  127.2656  118.6423 H        60        0    0.0000
    945 H         184.3981  126.3423  115.8481 H        60        0    0.0000
    946 H         182.9390  125.7589  116.6381 H        60        0    0.0000
    947 H         186.0626  127.8871  118.3937 H        60        0    0.0000
    948 H         186.3106  126.9696  116.9122 H        60        0    0.0000
    949 H         186.9960  125.0326  118.0162 H        60        0    0.0000
    950 H         188.7457  125.6460  119.3534 H        60        0    0.0000
    951 H         188.1848  127.2988  119.1338 H        60        0    0.0000
    952 C         190.2787  128.5577  122.6306 C.3      61        0    0.0000
    953 C         189.5887  127.9850  121.3898 C.3      61        0    0.0000
    954 C         188.8747  126.7059  121.8459 C.3      61        0    0.0000
    955 C         187.6055  126.4273  121.0359 C.3      61        0    0.0000
    956 C         188.6376  126.9530  123.3394 C.3      61        0    0.0000
    957 C         189.9530  127.6007  123.7848 C.3      61        0    0.0000
    958 C         189.8852  128.3193  125.1352 C.3      61        0    0.0000
    959 H         191.3609  128.6419  122.4837 H        61        0    0.0000
    960 H         189.8980  129.5672  122.8267 H        61        0    0.0000
    961 H         190.3101  127.7698  120.5942 H        61        0    0.0000
    962 H         188.8789  128.7215  120.9942 H        61        0    0.0000
    963 H         189.5750  125.8650  121.7364 H        61        0    0.0000
    964 H         186.8878  127.2407  121.1965 H        61        0    0.0000
    965 H         187.1242  125.5072  121.3875 H        61        0    0.0000
    966 H         188.4356  126.0234  123.8808 H        61        0    0.0000
    967 H         187.7917  127.6342  123.4955 H        61        0    0.0000
    968 H         190.7323  126.8254  123.8173 H        61        0    0.0000
    969 H         190.2523  129.3477  125.0376 H        61        0    0.0000
    970 H         190.5476  127.8136  125.8479 H        61        0    0.0000
    971 C         188.4478  128.3370  125.7237 C.3      62        0    0.0000
    972 C         188.0344  129.6902  126.3199 C.3      62        0    0.0000
    973 H         187.7640  128.1061  124.8968 H        62        0    0.0000
    974 H         188.3384  127.5284  126.4559 H        62        0    0.0000
    975 H         188.6201  129.9269  127.2159 H        62        0    0.0000
    976 H         188.2604  130.4706  125.5820 H        62        0    0.0000
    977 C         184.1298  127.3993  125.2093 C.3      63        0    0.0000
    978 C         185.5845  127.8638  125.2618 C.3      63        0    0.0000
    979 C         185.8152  128.4323  126.6727 C.3      63        0    0.0000
    980 C         186.5043  129.8030  126.6437 C.3      63        0    0.0000
    981 C         184.4226  128.4453  127.3217 C.3      63        0    0.0000
    982 C         183.6709  127.2806  126.6649 C.3      63        0    0.0000
    983 C         184.0056  125.8997  127.2578 C.3      63        0    0.0000
    984 H         183.5304  128.1668  124.7031 H        63        0    0.0000
    985 H         184.0143  126.4716  124.6402 H        63        0    0.0000
    986 H         185.7808  128.5950  124.4700 H        63        0    0.0000
    987 H         186.2592  127.0165  125.0920 H        63        0    0.0000
    988 H         186.4511  127.7236  127.2218 H        63        0    0.0000
    989 H         186.3668  130.3188  127.6011 H        63        0    0.0000
    990 H         186.0331  130.4290  125.8764 H        63        0    0.0000
    991 H         184.4769  128.3617  128.4115 H        63        0    0.0000
    992 H         183.9031  129.3842  127.0896 H        63        0    0.0000
    993 H         182.5878  127.4472  126.7257 H        63        0    0.0000
    994 H         185.0707  125.6685  127.1501 H        63        0    0.0000
    995 H         183.4598  125.1269  126.7030 H        63        0    0.0000
    996 C         180.5963  128.0157  129.2711 C.3      64        0    0.0000
    997 C         181.6362  127.3645  128.3556 C.3      64        0    0.0000
    998 C         182.8428  127.0315  129.2430 C.3      64        0    0.0000
    999 C         183.5998  125.7932  128.7551 C.3      64        0    0.0000
   1000 C         182.2220  126.8923  130.6370 C.3      64        0    0.0000
   1001 C         181.2178  128.0491  130.6736 C.3      64        0    0.0000
   1002 C         180.1642  127.9447  131.7797 C.3      64        0    0.0000
   1003 H         180.3397  129.0249  128.9312 H        64        0    0.0000
   1004 H         179.6737  127.4232  129.2551 H        64        0    0.0000
   1005 H         181.9234  128.0332  127.5370 H        64        0    0.0000
   1006 H         181.2095  126.4615  127.9029 H        64        0    0.0000
   1007 H         183.5172  127.9002  129.2445 H        64        0    0.0000
   1008 H         182.9656  124.9077  128.8824 H        64        0    0.0000
   1009 H         184.4960  125.6304  129.3653 H        64        0    0.0000
   1010 H         182.9726  126.9770  131.4292 H        64        0    0.0000
   1011 H         181.7128  125.9264  130.7457 H        64        0    0.0000
   1012 H         181.7731  128.9924  130.7799 H        64        0    0.0000
   1013 H         179.1661  127.8202  131.3438 H        64        0    0.0000
   1014 H         180.1452  128.8805  132.3510 H        64        0    0.0000
   1015 C         180.4501  126.7737  132.7595 C.3      65        0    0.0000
   1016 C         179.4596  126.6829  133.9292 C.3      65        0    0.0000
   1017 H         181.4518  126.9449  133.1742 H        65        0    0.0000
   1018 H         180.4982  125.8300  132.2035 H        65        0    0.0000
   1019 H         179.4791  127.6396  134.4668 H        65        0    0.0000
   1020 H         178.4323  126.5449  133.5721 H        65        0    0.0000
   1021 C         176.7375  124.3132  136.6363 C.3      66        0    0.0000
   1022 C         177.3432  125.3662  135.7050 C.3      66        0    0.0000
   1023 C         178.8094  125.5454  136.1379 C.3      66        0    0.0000
   1024 C         179.8095  125.5687  134.9754 C.3      66        0    0.0000
   1025 C         179.0664  124.3858  137.1055 C.3      66        0    0.0000
   1026 C         177.7204  124.1590  137.8020 C.3      66        0    0.0000
   1027 C         177.4714  125.1656  138.9412 C.3      66        0    0.0000
   1028 H         175.7226  124.5794  136.9467 H        66        0    0.0000
   1029 H         176.6689  123.3607  136.0953 H        66        0    0.0000
   1030 H         177.2434  125.0459  134.6620 H        66        0    0.0000
   1031 H         176.8070  126.3172  135.8045 H        66        0    0.0000
   1032 H         178.8899  126.4853  136.7025 H        66        0    0.0000
   1033 H         180.8158  125.7617  135.3660 H        66        0    0.0000
   1034 H         179.8432  124.5917  134.4796 H        66        0    0.0000
   1035 H         179.8762  124.6094  137.8077 H        66        0    0.0000
   1036 H         179.3486  123.4812  136.5514 H        66        0    0.0000
   1037 H         177.6805  123.1378  138.2019 H        66        0    0.0000
   1038 H         177.7999  126.1720  138.6589 H        66        0    0.0000
   1039 H         178.0587  124.8735  139.8198 H        66        0    0.0000
   1040 C         175.4801  125.6044  142.9706 C.3      67        0    0.0000
   1041 C         176.4878  125.6109  141.8222 C.3      67        0    0.0000
   1042 C         175.7337  126.1076  140.5765 C.3      67        0    0.0000
   1043 C         175.9716  125.2107  139.3545 C.3      67        0    0.0000
   1044 C         174.2637  126.1896  141.0162 C.3      67        0    0.0000
   1045 C         174.3182  126.4929  142.5189 C.3      67        0    0.0000
   1046 C         174.5688  127.9744  142.8546 C.3      67        0    0.0000
   1047 H         175.1155  124.5796  143.1169 H        67        0    0.0000
   1048 H         175.9305  125.9251  143.9152 H        67        0    0.0000
   1049 H         176.9214  124.6137  141.6888 H        67        0    0.0000
   1050 H         177.3151  126.2941  142.0478 H        67        0    0.0000
   1051 H         176.0889  127.1228  140.3500 H        67        0    0.0000
   1052 H         175.3655  125.5525  138.5074 H        67        0    0.0000
   1053 H         175.6452  124.1896  139.5857 H        67        0    0.0000
   1054 H         173.7062  126.9394  140.4464 H        67        0    0.0000
   1055 H         173.7659  125.2232  140.8629 H        67        0    0.0000
   1056 H         173.3908  126.1639  143.0049 H        67        0    0.0000
   1057 H         174.2511  128.6270  142.0343 H        67        0    0.0000
   1058 H         175.6454  128.1375  142.9857 H        67        0    0.0000
   1059 C         173.8543  128.4047  144.1669 C.3      68        0    0.0000
   1060 C         172.9662  129.6479  144.0150 C.3      68        0    0.0000
   1061 H         173.2157  127.5650  144.4699 H        68        0    0.0000
   1062 H         174.5950  128.5386  144.9640 H        68        0    0.0000
   1063 H         173.5271  130.5666  144.2228 H        68        0    0.0000
   1064 H         172.6414  129.7084  142.9684 H        68        0    0.0000
   1065 C         170.6840  130.1273  147.9813 C.3      69        0    0.0000
   1066 C         172.0740  129.9045  147.3792 C.3      69        0    0.0000
   1067 C         171.8988  128.8990  146.2359 C.3      69        0    0.0000
   1068 C         171.6661  129.6130  144.8910 C.3      69        0    0.0000
   1069 C         170.7104  128.0611  146.7242 C.3      69        0    0.0000
   1070 C         169.7532  129.0834  147.3421 C.3      69        0    0.0000
   1071 C         168.7597  128.4383  148.3150 C.3      69        0    0.0000
   1072 H         170.7336  130.0318  149.0719 H        69        0    0.0000
   1073 H         170.3259  131.1393  147.7601 H        69        0    0.0000
   1074 H         172.7262  129.4695  148.1471 H        69        0    0.0000
   1075 H         172.5370  130.8440  147.0608 H        69        0    0.0000
   1076 H         172.7939  128.2690  146.1542 H        69        0    0.0000
   1077 H         171.3519  130.6463  145.0813 H        69        0    0.0000
   1078 H         170.8568  129.1398  144.3248 H        69        0    0.0000
   1079 H         171.0552  127.3524  147.4886 H        69        0    0.0000
   1080 H         170.2296  127.4796  145.9319 H        69        0    0.0000
   1081 H         169.1938  129.5694  146.5304 H        69        0    0.0000
   1082 H         168.9800  127.3710  148.4331 H        69        0    0.0000
   1083 H         167.7466  128.5101  147.9017 H        69        0    0.0000
   1084 C         166.5339  126.8214  151.7228 C.3      70        0    0.0000
   1085 C         167.9022  127.1703  151.1542 C.3      70        0    0.0000
   1086 C         167.7179  128.6166  150.6832 C.3      70        0    0.0000
   1087 C         168.7811  129.1310  149.7079 C.3      70        0    0.0000
   1088 C         166.2624  128.6980  150.1829 C.3      70        0    0.0000
   1089 C         165.5724  127.4159  150.6885 C.3      70        0    0.0000
   1090 C         164.1246  127.5867  151.1586 C.3      70        0    0.0000
   1091 H         166.4010  125.7409  151.8344 H        70        0    0.0000
   1092 H         166.4146  127.2826  152.7094 H        70        0    0.0000
   1093 H         168.6924  127.0803  151.9061 H        70        0    0.0000
   1094 H         168.1420  126.4945  150.3260 H        70        0    0.0000
   1095 H         167.7804  129.2539  151.5781 H        70        0    0.0000
   1096 H         168.6456  130.2099  149.5668 H        70        0    0.0000
   1097 H         169.7732  128.9939  150.1542 H        70        0    0.0000
   1098 H         166.1895  128.7466  149.0911 H        70        0    0.0000
   1099 H         165.7947  129.6120  150.5645 H        70        0    0.0000
   1100 H         165.5447  126.7162  149.8396 H        70        0    0.0000
   1101 H         163.5684  128.1569  150.4051 H        70        0    0.0000
   1102 H         163.6495  126.6005  151.2213 H        70        0    0.0000
   1103 C         163.9784  128.3012  152.5356 C.3      71        0    0.0000
   1104 C         162.6026  128.9441  152.7620 C.3      71        0    0.0000
   1105 H         164.7343  129.0965  152.5617 H        71        0    0.0000
   1106 H         164.2301  127.6031  153.3426 H        71        0    0.0000
   1107 H         162.3968  129.6142  151.9175 H        71        0    0.0000
   1108 H         161.8060  128.1908  152.7656 H        71        0    0.0000
   1109 C         162.5125  129.8147  154.0630 C.3      72        0    0.0000
   1110 C         161.1876  130.5760  154.2136 C.3      72        0    0.0000
   1111 H         163.3241  130.5514  154.0081 H        72        0    0.0000
   1112 H         162.7153  129.1897  154.9405 H        72        0    0.0000
   1113 H         161.0933  131.2663  153.3655 H        72        0    0.0000
   1114 H         160.3289  129.8965  154.1616 H        72        0    0.0000
   1115 C         160.1105  129.5954  158.6526 C.3      73        0    0.0000
   1116 C         160.7108  129.6142  157.2444 C.3      73        0    0.0000
   1117 C         160.1305  130.8506  156.5454 C.3      73        0    0.0000
   1118 C         161.0963  131.4443  155.5161 C.3      73        0    0.0000
   1119 C         159.7893  131.7827  157.7128 C.3      73        0    0.0000
   1120 C         159.1923  130.8212  158.7457 C.3      73        0    0.0000
   1121 C         159.1128  131.3820  160.1683 C.3      73        0    0.0000
   1122 H         159.5520  128.6714  158.8373 H        73        0    0.0000
   1123 H         160.9172  129.6411  159.3940 H        73        0    0.0000
   1124 H         160.4662  128.7001  156.6928 H        73        0    0.0000
   1125 H         161.8038  129.6688  157.3143 H        73        0    0.0000
   1126 H         159.1953  130.5553  156.0475 H        73        0    0.0000
   1127 H         162.0972  131.5160  155.9583 H        73        0    0.0000
   1128 H         160.7927  132.4645  155.2540 H        73        0    0.0000
   1129 H         159.0780  132.5614  157.4199 H        73        0    0.0000
   1130 H         160.6918  132.2689  158.1040 H        73        0    0.0000
   1131 H         158.1885  130.5237  158.4090 H        73        0    0.0000
   1132 H         159.1449  132.4777  160.1474 H        73        0    0.0000
   1133 H         159.9896  131.0509  160.7375 H        73        0    0.0000
   1134 C         159.3238  129.5726  164.1440 C.3      74        0    0.0000
   1135 C         159.4930  130.2421  162.7874 C.3      74        0    0.0000
   1136 C         158.0532  130.5924  162.3973 C.3      74        0    0.0000
   1137 C         157.8336  130.9164  160.9164 C.3      74        0    0.0000
   1138 C         157.1898  129.4474  162.9621 C.3      74        0    0.0000
   1139 C         158.1036  128.6709  163.9303 C.3      74        0    0.0000
   1140 C         157.4304  128.1618  165.2086 C.3      74        0    0.0000
   1141 H         160.2120  129.0014  164.4316 H        74        0    0.0000
   1142 H         159.1449  130.3330  164.9122 H        74        0    0.0000
   1143 H         160.1306  131.1297  162.8461 H        74        0    0.0000
   1144 H         159.9516  129.5397  162.0827 H        74        0    0.0000
   1145 H         157.7822  131.4991  162.9591 H        74        0    0.0000
   1146 H         157.4334  130.0293  160.4114 H        74        0    0.0000
   1147 H         157.0706  131.6991  160.8301 H        74        0    0.0000
   1148 H         156.8202  128.7698  162.1849 H        74        0    0.0000
   1149 H         156.3049  129.8648  163.4543 H        74        0    0.0000
   1150 H         158.4559  127.7810  163.3871 H        74        0    0.0000
   1151 H         156.9129  128.9959  165.6972 H        74        0    0.0000
   1152 H         156.6615  127.4275  164.9407 H        74        0    0.0000
   1153 C         158.4088  127.5112  166.2321 C.3      75        0    0.0000
   1154 C         157.9822  127.6806  167.6973 C.3      75        0    0.0000
   1155 H         158.4347  126.4373  166.0071 H        75        0    0.0000
   1156 H         159.4237  127.8909  166.0657 H        75        0    0.0000
   1157 H         157.8177  128.7358  167.9454 H        75        0    0.0000
   1158 H         157.0186  127.1728  167.8323 H        75        0    0.0000
   1159 C         158.2856  125.5220  171.9959 C.3      76        0    0.0000
   1160 C         159.2905  126.3036  171.1510 C.3      76        0    0.0000
   1161 C         158.4706  127.1614  170.1718 C.3      76        0    0.0000
   1162 C         158.9775  127.0443  168.7283 C.3      76        0    0.0000
   1163 C         157.0190  126.6962  170.3652 C.3      76        0    0.0000
   1164 C         156.9434  126.2387  171.8274 C.3      76        0    0.0000
   1165 C         156.7787  127.3869  172.8398 C.3      76        0    0.0000
   1166 H         158.2034  124.5028  171.5969 H        76        0    0.0000
   1167 H         158.6042  125.4358  173.0394 H        76        0    0.0000
   1168 H         159.9785  125.6180  170.6443 H        76        0    0.0000
   1169 H         159.8978  126.9548  171.7906 H        76        0    0.0000
   1170 H         158.5487  128.2092  170.4947 H        76        0    0.0000
   1171 H         159.1541  125.9936  168.4706 H        76        0    0.0000
   1172 H         159.9424  127.5581  168.6407 H        76        0    0.0000
   1173 H         156.2997  127.4849  170.1240 H        76        0    0.0000
   1174 H         156.8023  125.8422  169.7102 H        76        0    0.0000
   1175 H         156.1227  125.5217  171.9573 H        76        0    0.0000
   1176 H         156.3235  128.2666  172.3724 H        76        0    0.0000
   1177 H         157.7681  127.6983  173.1963 H        76        0    0.0000
   1178 C         154.9778  128.8727  177.1073 C.3      77        0    0.0000
   1179 C         155.2724  128.9275  175.6063 C.3      77        0    0.0000
   1180 C         156.2761  127.7980  175.3132 C.3      77        0    0.0000
   1181 C         155.9355  126.9601  174.0746 C.3      77        0    0.0000
   1182 C         156.2949  126.9613  176.5965 C.3      77        0    0.0000
   1183 C         156.0573  127.9746  177.7212 C.3      77        0    0.0000
   1184 C         157.3382  128.7411  178.1017 C.3      77        0    0.0000
   1185 H         154.9307  129.8722  177.5500 H        77        0    0.0000
   1186 H         153.9950  128.4078  177.2576 H        77        0    0.0000
   1187 H         154.3412  128.8276  175.0377 H        77        0    0.0000
   1188 H         155.7128  129.8952  175.3391 H        77        0    0.0000
   1189 H         157.2716  128.2462  175.1835 H        77        0    0.0000
   1190 H         156.1366  125.9029  174.2848 H        77        0    0.0000
   1191 H         154.8677  127.0399  173.8402 H        77        0    0.0000
   1192 H         157.2334  126.4095  176.7125 H        77        0    0.0000
   1193 H         155.4783  126.2278  176.5863 H        77        0    0.0000
   1194 H         155.6650  127.4571  178.6059 H        77        0    0.0000
   1195 H         157.1003  129.7190  178.5348 H        77        0    0.0000
   1196 H         157.9319  128.9284  177.1991 H        77        0    0.0000
   1197 C         158.7793  124.2323  179.6689 C.3      78        0    0.0000
   1198 C         159.2790  125.5718  179.1499 C.3      78        0    0.0000
   1199 C         158.0029  126.4176  179.0536 C.3      78        0    0.0000
   1200 C         158.2178  127.9356  179.1014 C.3      78        0    0.0000
   1201 C         157.0452  125.8507  180.1219 C.3      78        0    0.0000
   1202 C         157.7634  124.6368  180.7392 C.3      78        0    0.0000
   1203 C         156.8424  123.4777  181.1281 C.3      78        0    0.0000
   1204 H         158.2991  123.6671  178.8609 H        78        0    0.0000
   1205 H         159.5910  123.6229  180.0780 H        78        0    0.0000
   1206 H         160.0010  125.9926  179.8580 H        78        0    0.0000
   1207 H         159.7786  125.4739  178.1810 H        78        0    0.0000
   1208 H         157.5465  126.2002  178.0764 H        78        0    0.0000
   1209 H         158.0107  128.2924  180.1174 H        78        0    0.0000
   1210 H         159.2733  128.1545  178.9009 H        78        0    0.0000
   1211 H         156.1069  125.5527  179.6379 H        78        0    0.0000
   1212 H         156.7847  126.5804  180.8958 H        78        0    0.0000
   1213 H         158.3159  124.9796  181.6262 H        78        0    0.0000
   1214 H         156.2859  123.1262  180.2513 H        78        0    0.0000
   1215 H         157.4496  122.6330  181.4746 H        78        0    0.0000
   1216 C         158.2921  124.6598  185.0419 C.3      79        0    0.0000
   1217 C         158.0094  124.3428  183.5801 C.3      79        0    0.0000
   1218 C         156.4880  124.4974  183.4849 C.3      79        0    0.0000
   1219 C         155.8387  123.8643  182.2505 C.3      79        0    0.0000
   1220 C         155.9451  124.0126  184.8435 C.3      79        0    0.0000
   1221 C         157.1691  123.9193  185.7755 C.3      79        0    0.0000
   1222 C         156.9307  124.3558  187.2243 C.3      79        0    0.0000
   1223 H         159.2833  124.3137  185.3510 H        79        0    0.0000
   1224 H         158.2447  125.7426  185.2016 H        79        0    0.0000
   1225 H         158.5351  125.0249  182.9047 H        79        0    0.0000
   1226 H         158.3349  123.3215  183.3533 H        79        0    0.0000
   1227 H         156.2800  125.5765  183.4286 H        79        0    0.0000
   1228 H         155.2889  122.9662  182.5560 H        79        0    0.0000
   1229 H         155.0995  124.5609  181.8373 H        79        0    0.0000
   1230 H         155.4565  123.0342  184.7821 H        79        0    0.0000
   1231 H         155.1864  124.7145  185.2061 H        79        0    0.0000
   1232 H         157.4579  122.8581  185.8125 H        79        0    0.0000
   1233 H         157.8860  124.6597  187.6684 H        79        0    0.0000
   1234 H         156.2847  125.2417  187.2300 H        79        0    0.0000
   1235 C         156.2857  123.2603  188.1253 C.3      80        0    0.0000
   1236 C         156.6891  123.3515  189.6039 C.3      80        0    0.0000
   1237 H         156.6263  122.2912  187.7387 H        80        0    0.0000
   1238 H         155.1959  123.2793  188.0072 H        80        0    0.0000
   1239 H         157.7760  123.4958  189.6520 H        80        0    0.0000
   1240 H         156.2355  124.2244  190.0880 H        80        0    0.0000
   1241 C         155.6671  123.5351  193.8338 C.3      81        0    0.0000
   1242 C         156.1599  123.6755  192.3911 C.3      81        0    0.0000
   1243 C         156.5686  122.2682  191.9367 C.3      81        0    0.0000
   1244 C         156.3667  122.0604  190.4332 C.3      81        0    0.0000
   1245 C         155.7201  121.3545  192.8272 C.3      81        0    0.0000
   1246 C         155.7988  122.0487  194.1910 C.3      81        0    0.0000
   1247 C         154.7390  121.5964  195.1993 C.3      81        0    0.0000
   1248 H         156.2529  124.1571  194.5191 H        81        0    0.0000
   1249 H         154.6258  123.8726  193.8983 H        81        0    0.0000
   1250 H         157.0033  124.3710  192.3222 H        81        0    0.0000
   1251 H         155.3535  124.0800  191.7677 H        81        0    0.0000
   1252 H         157.6283  122.1203  192.1912 H        81        0    0.0000
   1253 H         155.3248  121.7755  190.2439 H        81        0    0.0000
   1254 H         156.9905  121.2324  190.0766 H        81        0    0.0000
   1255 H         156.1174  120.3351  192.8637 H        81        0    0.0000
   1256 H         154.6840  121.3086  192.4689 H        81        0    0.0000
   1257 H         156.8020  121.8848  194.6106 H        81        0    0.0000
   1258 H         155.2143  121.1020  196.0546 H        81        0    0.0000
   1259 H         154.0849  120.8530  194.7280 H        81        0    0.0000
   1260 C         153.8629  122.7753  195.7049 C.3      82        0    0.0000
   1261 C         152.9471  122.4118  196.8824 C.3      82        0    0.0000
   1262 H         154.5520  123.5613  196.0396 H        82        0    0.0000
   1263 H         153.2907  123.1952  194.8693 H        82        0    0.0000
   1264 H         152.2446  121.6153  196.6102 H        82        0    0.0000
   1265 H         153.5738  122.0146  197.6911 H        82        0    0.0000
   1266 C         154.4292  126.4561  198.2748 C.3      83        0    0.0000
   1267 C         154.3202  124.9944  197.8340 C.3      83        0    0.0000
   1268 C         153.0213  124.4446  198.4500 C.3      83        0    0.0000
   1269 C         152.1596  123.6305  197.4769 C.3      83        0    0.0000
   1270 C         152.2930  125.6855  198.9762 C.3      83        0    0.0000
   1271 C         153.4142  126.6364  199.4089 C.3      83        0    0.0000
   1272 C         153.9849  126.2797  200.7946 C.3      83        0    0.0000
   1273 H         155.4535  126.7226  198.5525 H        83        0    0.0000
   1274 H         154.1461  127.1010  197.4330 H        83        0    0.0000
   1275 H         154.3328  124.9308  196.7403 H        83        0    0.0000
   1276 H         155.1786  124.4201  198.2016 H        83        0    0.0000
   1277 H         153.2874  123.8145  199.3107 H        83        0    0.0000
   1278 H         151.2767  123.2503  198.0044 H        83        0    0.0000
   1279 H         151.7938  124.2681  196.6639 H        83        0    0.0000
   1280 H         151.6039  125.4417  199.7914 H        83        0    0.0000
   1281 H         151.7061  126.1526  198.1747 H        83        0    0.0000
   1282 H         153.0375  127.6670  199.4232 H        83        0    0.0000
   1283 H         154.8473  125.6096  200.7069 H        83        0    0.0000
   1284 H         153.2237  125.7451  201.3751 H        83        0    0.0000
   1285 C         153.7777  128.7934  205.0338 C.3      84        0    0.0000
   1286 C         154.8226  128.4947  203.9559 C.3      84        0    0.0000
   1287 C         154.2608  127.3409  203.1060 C.3      84        0    0.0000
   1288 C         154.3990  127.5498  201.5929 C.3      84        0    0.0000
   1289 C         152.7987  127.2185  203.5469 C.3      84        0    0.0000
   1290 C         152.8092  127.6056  205.0296 C.3      84        0    0.0000
   1291 C         153.2676  126.4474  205.9359 C.3      84        0    0.0000
   1292 H         154.2395  128.9832  206.0074 H        84        0    0.0000
   1293 H         153.2318  129.7035  204.7539 H        84        0    0.0000
   1294 H         155.0238  129.3973  203.3685 H        84        0    0.0000
   1295 H         155.7697  128.1904  204.4167 H        84        0    0.0000
   1296 H         154.7820  126.4162  203.3921 H        84        0    0.0000
   1297 H         153.7565  128.3818  201.2810 H        84        0    0.0000
   1298 H         155.4275  127.8297  201.3374 H        84        0    0.0000
   1299 H         152.4005  126.2137  203.3725 H        84        0    0.0000
   1300 H         152.1710  127.9253  202.9888 H        84        0    0.0000
   1301 H         151.8057  127.9308  205.3321 H        84        0    0.0000
   1302 H         154.3568  126.3314  205.9094 H        84        0    0.0000
   1303 H         152.8382  125.5071  205.5702 H        84        0    0.0000
   1304 C         155.5817  127.6505  209.5934 C.3      85        0    0.0000
   1305 C         155.1192  127.4344  208.1533 C.3      85        0    0.0000
   1306 C         153.6122  127.7429  208.1231 C.3      85        0    0.0000
   1307 C         152.8072  126.6494  207.4087 C.3      85        0    0.0000
   1308 C         153.2247  127.9444  209.5962 C.3      85        0    0.0000
   1309 C         154.4923  128.4897  210.2662 C.3      85        0    0.0000
   1310 C         154.7199  129.9973  210.0525 C.3      85        0    0.0000
   1311 H         155.6484  126.6764  210.0946 H        85        0    0.0000
   1312 H         156.5749  128.1079  209.6425 H        85        0    0.0000
   1313 H         155.3525  126.4153  207.8261 H        85        0    0.0000
   1314 H         155.6480  128.1181  207.4788 H        85        0    0.0000
   1315 H         153.4737  128.6947  207.5910 H        85        0    0.0000
   1316 H         151.7374  126.8876  207.4315 H        85        0    0.0000
   1317 H         152.9316  125.7003  207.9438 H        85        0    0.0000
   1318 H         152.3612  128.6076  209.7064 H        85        0    0.0000
   1319 H         152.9612  126.9827  210.0556 H        85        0    0.0000
   1320 H         154.4731  128.2759  211.3425 H        85        0    0.0000
   1321 H         154.6958  130.2560  208.9885 H        85        0    0.0000
   1322 H         155.7183  130.2668  210.4179 H        85        0    0.0000
   1323 C         150.1224  130.0302  211.4834 C.3      86        0    0.0000
   1324 C         151.3637  130.7900  211.9577 C.3      86        0    0.0000
   1325 C         152.5836  129.9954  211.4582 C.3      86        0    0.0000
   1326 C         153.6783  130.8596  210.8203 C.3      86        0    0.0000
   1327 C         151.9990  128.9754  210.4758 C.3      86        0    0.0000
   1328 C         150.6124  128.6475  211.0399 C.3      86        0    0.0000
   1329 C         150.6735  127.6281  212.1933 C.3      86        0    0.0000
   1330 H         149.3459  129.9975  212.2536 H        86        0    0.0000
   1331 H         149.6960  130.5550  210.6190 H        86        0    0.0000
   1332 H         151.3412  131.8179  211.5793 H        86        0    0.0000
   1333 H         151.3803  130.8482  213.0523 H        86        0    0.0000
   1334 H         153.0086  129.4445  212.3095 H        86        0    0.0000
   1335 H         153.2206  131.5628  210.1143 H        86        0    0.0000
   1336 H         154.1851  131.4608  211.5838 H        86        0    0.0000
   1337 H         152.6369  128.0914  210.3745 H        86        0    0.0000
   1338 H         151.8920  129.4229  209.4792 H        86        0    0.0000
   1339 H         149.9728  128.2551  210.2392 H        86        0    0.0000
   1340 H         149.9649  126.8078  212.0343 H        86        0    0.0000
   1341 H         150.3858  128.1206  213.1298 H        86        0    0.0000
   1342 C         152.1049  127.0444  212.3730 C.3      87        0    0.0000
   1343 C         152.1935  125.9188  213.4135 C.3      87        0    0.0000
   1344 H         152.4038  126.6332  211.4003 H        87        0    0.0000
   1345 H         152.8082  127.8541  212.6005 H        87        0    0.0000
   1346 H         151.2886  125.2999  213.4096 H        87        0    0.0000
   1347 H         153.0253  125.2602  213.1325 H        87        0    0.0000
   1348 C         152.4849  126.4195  214.8706 C.3      88        0    0.0000
   1349 C         152.3014  125.3420  215.9489 C.3      88        0    0.0000
   1350 H         153.5327  126.7456  214.8899 H        88        0    0.0000
   1351 H         151.8768  127.3061  215.0851 H        88        0    0.0000
   1352 H         151.4000  124.7451  215.7670 H        88        0    0.0000
   1353 H         153.1524  124.6516  215.8885 H        88        0    0.0000
   1354 C         149.5679  124.1199  219.3937 C.3      89        0    0.0000
   1355 C         150.1230  124.6232  218.0686 C.3      89        0    0.0000
   1356 C         151.5660  124.9973  218.4226 C.3      89        0    0.0000
   1357 C         152.2770  125.9034  217.4128 C.3      89        0    0.0000
   1358 C         151.5038  125.5323  219.8667 C.3      89        0    0.0000
   1359 C         150.1132  125.1374  220.4011 C.3      89        0    0.0000
   1360 C         150.0697  124.6984  221.8680 C.3      89        0    0.0000
   1361 H         148.4739  124.0878  219.3928 H        89        0    0.0000
   1362 H         149.9378  123.1074  219.5892 H        89        0    0.0000
   1363 H         150.0764  123.8571  217.2884 H        89        0    0.0000
   1364 H         149.5439  125.4894  217.7298 H        89        0    0.0000
   1365 H         152.1394  124.0586  218.4579 H        89        0    0.0000
   1366 H         151.7877  126.8846  217.4057 H        89        0    0.0000
   1367 H         153.3091  126.0685  217.7439 H        89        0    0.0000
   1368 H         151.6225  126.6197  219.9233 H        89        0    0.0000
   1369 H         152.3231  125.1014  220.4523 H        89        0    0.0000
   1370 H         149.4791  126.0336  220.3243 H        89        0    0.0000
   1371 H         149.2061  125.1655  222.3560 H        89        0    0.0000
   1372 H         149.9090  123.6147  221.9131 H        89        0    0.0000
   1373 C         151.3531  125.0483  222.6795 C.3      90        0    0.0000
   1374 C         151.2174  124.8176  224.1914 C.3      90        0    0.0000
   1375 H         152.1521  124.3952  222.3058 H        90        0    0.0000
   1376 H         151.6605  126.0773  222.4590 H        90        0    0.0000
   1377 H         150.3086  125.2865  224.5865 H        90        0    0.0000
   1378 H         151.1138  123.7386  224.3632 H        90        0    0.0000
   1379 C         151.2803  124.3297  228.4914 C.3      91        0    0.0000
   1380 C         150.9665  124.6273  227.0331 C.3      91        0    0.0000
   1381 C         152.2240  125.3519  226.5365 C.3      91        0    0.0000
   1382 C         152.4602  125.2910  225.0221 C.3      91        0    0.0000
   1383 C         153.3816  124.8237  227.4087 C.3      91        0    0.0000
   1384 C         152.7416  123.8790  228.4424 C.3      91        0    0.0000
   1385 C         153.3994  123.9022  229.8244 C.3      91        0    0.0000
   1386 H         151.1659  125.2368  229.0973 H        91        0    0.0000
   1387 H         150.6227  123.5577  228.9026 H        91        0    0.0000
   1388 H         150.7920  123.6882  226.4972 H        91        0    0.0000
   1389 H         150.0695  125.2454  226.9262 H        91        0    0.0000
   1390 H         152.1021  126.4160  226.7882 H        91        0    0.0000
   1391 H         152.7607  126.2846  224.6687 H        91        0    0.0000
   1392 H         153.3009  124.6175  224.8174 H        91        0    0.0000
   1393 H         153.8750  125.6723  227.8987 H        91        0    0.0000
   1394 H         154.1507  124.3005  226.8309 H        91        0    0.0000
   1395 H         152.7732  122.8566  228.0385 H        91        0    0.0000
   1396 H         154.3796  123.4124  229.7850 H        91        0    0.0000
   1397 H         153.5790  124.9419  230.1227 H        91        0    0.0000
   1398 C         152.5268  123.2146  230.9118 C.3      92        0    0.0000
   1399 C         153.2204  123.0798  232.2749 C.3      92        0    0.0000
   1400 H         152.2993  122.2058  230.5442 H        92        0    0.0000
   1401 H         151.5682  123.7389  231.0021 H        92        0    0.0000
   1402 H         154.2234  122.6669  232.1072 H        92        0    0.0000
   1403 H         153.3596  124.0579  232.7501 H        92        0    0.0000
   1404 C         152.4915  122.1091  233.2674 C.3      93        0    0.0000
   1405 C         153.1462  122.0272  234.6538 C.3      93        0    0.0000
   1406 H         152.5254  121.1096  232.8153 H        93        0    0.0000
   1407 H         151.4327  122.3836  233.3419 H        93        0    0.0000
   1408 H         153.9203  121.2500  234.6193 H        93        0    0.0000
   1409 H         153.6540  122.9641  234.9110 H        93        0    0.0000
   1410 C         152.5183  120.3069  239.2080 C.3      94        0    0.0000
   1411 C         153.0374  120.2639  237.7716 C.3      94        0    0.0000
   1412 C         152.8252  121.6697  237.1837 C.3      94        0    0.0000
   1413 C         152.1565  121.6297  235.8032 C.3      94        0    0.0000
   1414 C         152.0143  122.4214  238.2505 C.3      94        0    0.0000
   1415 C         152.4345  121.7887  239.5833 C.3      94        0    0.0000
   1416 C         153.7718  122.3136  240.1368 C.3      94        0    0.0000
   1417 H         151.5119  119.8700  239.2347 H        94        0    0.0000
   1418 H         153.1432  119.7208  239.8892 H        94        0    0.0000
   1419 H         152.5230  119.4816  237.2028 H        94        0    0.0000
   1420 H         154.1061  120.0189  237.7621 H        94        0    0.0000
   1421 H         153.8103  122.1483  237.0905 H        94        0    0.0000
   1422 H         151.2832  122.2919  235.7837 H        94        0    0.0000
   1423 H         151.7888  120.6151  235.6083 H        94        0    0.0000
   1424 H         152.1889  123.5011  238.2135 H        94        0    0.0000
   1425 H         150.9396  122.2569  238.0981 H        94        0    0.0000
   1426 H         151.6492  121.9354  240.3358 H        94        0    0.0000
   1427 H         154.3929  122.7370  239.3401 H        94        0    0.0000
   1428 H         154.3383  121.4776  240.5647 H        94        0    0.0000
   1429 C         154.4281  122.2181  244.2023 C.3      95        0    0.0000
   1430 C         153.5548  121.6262  243.0929 C.3      95        0    0.0000
   1431 C         152.7987  122.7991  242.4593 C.3      95        0    0.0000
   1432 C         153.5649  123.3755  241.2537 C.3      95        0    0.0000
   1433 C         152.6556  123.7654  243.6420 C.3      95        0    0.0000
   1434 C         154.0046  123.6878  244.3613 C.3      95        0    0.0000
   1435 C         153.9196  124.1706  245.8137 C.3      95        0    0.0000
   1436 H         154.2950  121.6420  245.1251 H        95        0    0.0000
   1437 H         155.4885  122.1572  243.9320 H        95        0    0.0000
   1438 H         152.8341  120.9316  243.5430 H        95        0    0.0000
   1439 H         154.1444  121.0521  242.3709 H        95        0    0.0000
   1440 H         151.8078  122.4657  242.1249 H        95        0    0.0000
   1441 H         154.5511  123.7218  241.5858 H        95        0    0.0000
   1442 H         153.0514  124.2485  240.8371 H        95        0    0.0000
   1443 H         151.8517  123.4148  244.3024 H        95        0    0.0000
   1444 H         152.4110  124.7893  243.3438 H        95        0    0.0000
   1445 H         154.7241  124.3161  243.8176 H        95        0    0.0000
   1446 H         153.6913  125.2423  245.8465 H        95        0    0.0000
   1447 H         154.8937  124.0379  246.2990 H        95        0    0.0000
   1448 C         152.3576  119.9392  245.1272 C.3      96        0    0.0000
   1449 C         153.1920  121.2032  245.2680 C.3      96        0    0.0000
   1450 C         152.2067  122.2192  245.8595 C.3      96        0    0.0000
   1451 C         152.8475  123.3854  246.6226 C.3      96        0    0.0000
   1452 C         151.1813  121.3890  246.6589 C.3      96        0    0.0000
   1453 C         151.5533  119.9128  246.4285 C.3      96        0    0.0000
   1454 C         150.3606  118.9567  246.3505 C.3      96        0    0.0000
   1455 H         151.6970  120.0156  244.2550 H        96        0    0.0000
   1456 H         152.9812  119.0479  245.0079 H        96        0    0.0000
   1457 H         154.0381  121.0107  245.9365 H        96        0    0.0000
   1458 H         153.5945  121.5362  244.3062 H        96        0    0.0000
   1459 H         151.6596  122.6649  245.0154 H        96        0    0.0000
   1460 H         152.0603  124.0835  246.9317 H        96        0    0.0000
   1461 H         153.3066  123.0029  247.5418 H        96        0    0.0000
   1462 H         150.1741  121.6078  246.2826 H        96        0    0.0000
   1463 H         151.1780  121.6245  247.7283 H        96        0    0.0000
   1464 H         152.2237  119.5972  247.2412 H        96        0    0.0000
   1465 H         149.6675  119.2799  245.5648 H        96        0    0.0000
   1466 H         150.7144  117.9584  246.0666 H        96        0    0.0000
   1467 H         149.8224  118.8815  247.2954 H        96        0    0.0000
   1468 H          65.0411  203.2647  137.9775 H         0        0    0.0000
@<TRIPOS>BOND
     1     1     2      1
     2     1     6      1
     3     1     8      1
     4     1     9      1
     5     2     3      1
     6     2    10      1
     7     2    11      1
     8     3     4      1
     9     3     5      1
    10     3    12      1
    11     4    13      1
    12     4    14      1
    13     4  1468      H
    14     5     6      1
    15     5    15      1
    16     5    16      1
    17     6     7      1
    18     6    17      1
    19     7    18      1
    20     7    19      1
    21     7    23      1
    22    20    21      1
    23    20    25      1
    24    20    27      1
    25    20    28      1
    26    21    22      1
    27    21    29      1
    28    21    30      1
    29    22    23      1
    30    22    24      1
    31    22    31      1
    32    23    32      1
    33    23    33      1
    34    24    25      1
    35    24    34      1
    36    24    35      1
    37    25    26      1
    38    25    36      1
    39    26    37      1
    40    26    38      1
    41    26    39      1
    42    39    40      1
    43    39    41      1
    44    39    42      1
    45    40    43      1
    46    40    44      1
    47    40    48      1
    48    45    46      1
    49    45    50      1
    50    45    52      1
    51    45    53      1
    52    46    47      1
    53    46    54      1
    54    46    55      1
    55    47    48      1
    56    47    49      1
    57    47    56      1
    58    48    57      1
    59    48    58      1
    60    49    50      1
    61    49    59      1
    62    49    60      1
    63    50    51      1
    64    50    61      1
    65    51    62      1
    66    51    63      1
    67    51    64      1
    68    64    65      1
    69    64    66      1
    70    64    67      1
    71    65    68      1
    72    65    69      1
    73    65    73      1
    74    70    71      1
    75    70    75      1
    76    70    77      1
    77    70    78      1
    78    71    72      1
    79    71    79      1
    80    71    80      1
    81    72    73      1
    82    72    74      1
    83    72    81      1
    84    73    82      1
    85    73    83      1
    86    74    75      1
    87    74    84      1
    88    74    85      1
    89    75    76      1
    90    75    86      1
    91    76    87      1
    92    76    88      1
    93    76    92      1
    94    89    90      1
    95    89    94      1
    96    89    96      1
    97    89    97      1
    98    90    91      1
    99    90    98      1
   100    90    99      1
   101    91    92      1
   102    91    93      1
   103    91   100      1
   104    92   101      1
   105    92   102      1
   106    93    94      1
   107    93   103      1
   108    93   104      1
   109    94    95      1
   110    94   105      1
   111    95   106      1
   112    95   107      1
   113    95   108      1
   114   108   109      1
   115   108   110      1
   116   108   111      1
   117   109   112      1
   118   109   113      1
   119   109   114      1
   120   114   115      1
   121   114   116      1
   122   114   117      1
   123   115   118      1
   124   115   119      1
   125   115   120      1
   126   120   121      1
   127   120   122      1
   128   120   123      1
   129   121   124      1
   130   121   125      1
   131   121   126      1
   132   126   127      1
   133   126   128      1
   134   126   129      1
   135   127   130      1
   136   127   131      1
   137   127   135      1
   138   132   133      1
   139   132   137      1
   140   132   139      1
   141   132   140      1
   142   133   134      1
   143   133   141      1
   144   133   142      1
   145   134   135      1
   146   134   136      1
   147   134   143      1
   148   135   144      1
   149   135   145      1
   150   136   137      1
   151   136   146      1
   152   136   147      1
   153   137   138      1
   154   137   148      1
   155   138   149      1
   156   138   150      1
   157   138   154      1
   158   151   152      1
   159   151   156      1
   160   151   158      1
   161   151   159      1
   162   152   153      1
   163   152   160      1
   164   152   161      1
   165   153   154      1
   166   153   155      1
   167   153   162      1
   168   154   163      1
   169   154   164      1
   170   155   156      1
   171   155   165      1
   172   155   166      1
   173   156   157      1
   174   156   167      1
   175   157   168      1
   176   157   169      1
   177   157   170      1
   178   170   171      1
   179   170   172      1
   180   170   173      1
   181   171   174      1
   182   171   175      1
   183   171   179      1
   184   176   177      1
   185   176   181      1
   186   176   183      1
   187   176   184      1
   188   177   178      1
   189   177   185      1
   190   177   186      1
   191   178   179      1
   192   178   180      1
   193   178   187      1
   194   179   188      1
   195   179   189      1
   196   180   181      1
   197   180   190      1
   198   180   191      1
   199   181   182      1
   200   181   192      1
   201   182   193      1
   202   182   194      1
   203   182   195      1
   204   195   196      1
   205   195   197      1
   206   195   198      1
   207   196   199      1
   208   196   200      1
   209   196   204      1
   210   201   202      1
   211   201   206      1
   212   201   208      1
   213   201   209      1
   214   202   203      1
   215   202   210      1
   216   202   211      1
   217   203   204      1
   218   203   205      1
   219   203   212      1
   220   204   213      1
   221   204   214      1
   222   205   206      1
   223   205   215      1
   224   205   216      1
   225   206   207      1
   226   206   217      1
   227   207   218      1
   228   207   219      1
   229   207   223      1
   230   220   221      1
   231   220   225      1
   232   220   227      1
   233   220   228      1
   234   221   222      1
   235   221   229      1
   236   221   230      1
   237   222   223      1
   238   222   224      1
   239   222   231      1
   240   223   232      1
   241   223   233      1
   242   224   225      1
   243   224   234      1
   244   224   235      1
   245   225   226      1
   246   225   236      1
   247   226   237      1
   248   226   238      1
   249   226   242      1
   250   239   240      1
   251   239   244      1
   252   239   246      1
   253   239   247      1
   254   240   241      1
   255   240   248      1
   256   240   249      1
   257   241   242      1
   258   241   243      1
   259   241   250      1
   260   242   251      1
   261   242   252      1
   262   243   244      1
   263   243   253      1
   264   243   254      1
   265   244   245      1
   266   244   255      1
   267   245   256      1
   268   245   257      1
   269   245   261      1
   270   258   259      1
   271   258   263      1
   272   258   265      1
   273   258   266      1
   274   259   260      1
   275   259   267      1
   276   259   268      1
   277   260   261      1
   278   260   262      1
   279   260   269      1
   280   261   270      1
   281   261   271      1
   282   262   263      1
   283   262   272      1
   284   262   273      1
   285   263   264      1
   286   263   274      1
   287   264   275      1
   288   264   276      1
   289   264   277      1
   290   277   278      1
   291   277   279      1
   292   277   280      1
   293   278   281      1
   294   278   282      1
   295   278   286      1
   296   283   284      1
   297   283   288      1
   298   283   290      1
   299   283   291      1
   300   284   285      1
   301   284   292      1
   302   284   293      1
   303   285   286      1
   304   285   287      1
   305   285   294      1
   306   286   295      1
   307   286   296      1
   308   287   288      1
   309   287   297      1
   310   287   298      1
   311   288   289      1
   312   288   299      1
   313   289   300      1
   314   289   301      1
   315   289   305      1
   316   302   303      1
   317   302   307      1
   318   302   309      1
   319   302   310      1
   320   303   304      1
   321   303   311      1
   322   303   312      1
   323   304   305      1
   324   304   306      1
   325   304   313      1
   326   305   314      1
   327   305   315      1
   328   306   307      1
   329   306   316      1
   330   306   317      1
   331   307   308      1
   332   307   318      1
   333   308   319      1
   334   308   320      1
   335   308   324      1
   336   321   322      1
   337   321   326      1
   338   321   328      1
   339   321   329      1
   340   322   323      1
   341   322   330      1
   342   322   331      1
   343   323   324      1
   344   323   325      1
   345   323   332      1
   346   324   333      1
   347   324   334      1
   348   325   326      1
   349   325   335      1
   350   325   336      1
   351   326   327      1
   352   326   337      1
   353   327   338      1
   354   327   339      1
   355   327   343      1
   356   340   341      1
   357   340   345      1
   358   340   347      1
   359   340   348      1
   360   341   342      1
   361   341   349      1
   362   341   350      1
   363   342   343      1
   364   342   344      1
   365   342   351      1
   366   343   352      1
   367   343   353      1
   368   344   345      1
   369   344   354      1
   370   344   355      1
   371   345   346      1
   372   345   356      1
   373   346   357      1
   374   346   358      1
   375   346   362      1
   376   359   360      1
   377   359   364      1
   378   359   366      1
   379   359   367      1
   380   360   361      1
   381   360   368      1
   382   360   369      1
   383   361   362      1
   384   361   363      1
   385   361   370      1
   386   362   371      1
   387   362   372      1
   388   363   364      1
   389   363   373      1
   390   363   374      1
   391   364   365      1
   392   364   375      1
   393   365   376      1
   394   365   377      1
   395   365   381      1
   396   378   379      1
   397   378   383      1
   398   378   385      1
   399   378   386      1
   400   379   380      1
   401   379   387      1
   402   379   388      1
   403   380   381      1
   404   380   382      1
   405   380   389      1
   406   381   390      1
   407   381   391      1
   408   382   383      1
   409   382   392      1
   410   382   393      1
   411   383   384      1
   412   383   394      1
   413   384   395      1
   414   384   396      1
   415   384   397      1
   416   397   398      1
   417   397   399      1
   418   397   400      1
   419   398   401      1
   420   398   402      1
   421   398   406      1
   422   403   404      1
   423   403   408      1
   424   403   410      1
   425   403   411      1
   426   404   405      1
   427   404   412      1
   428   404   413      1
   429   405   406      1
   430   405   407      1
   431   405   414      1
   432   406   415      1
   433   406   416      1
   434   407   408      1
   435   407   417      1
   436   407   418      1
   437   408   409      1
   438   408   419      1
   439   409   420      1
   440   409   421      1
   441   409   425      1
   442   422   423      1
   443   422   427      1
   444   422   429      1
   445   422   430      1
   446   423   424      1
   447   423   431      1
   448   423   432      1
   449   424   425      1
   450   424   426      1
   451   424   433      1
   452   425   434      1
   453   425   435      1
   454   426   427      1
   455   426   436      1
   456   426   437      1
   457   427   428      1
   458   427   438      1
   459   428   439      1
   460   428   440      1
   461   428   444      1
   462   441   442      1
   463   441   446      1
   464   441   448      1
   465   441   449      1
   466   442   443      1
   467   442   450      1
   468   442   451      1
   469   443   444      1
   470   443   445      1
   471   443   452      1
   472   444   453      1
   473   444   454      1
   474   445   446      1
   475   445   455      1
   476   445   456      1
   477   446   447      1
   478   446   457      1
   479   447   458      1
   480   447   459      1
   481   447   463      1
   482   460   461      1
   483   460   465      1
   484   460   467      1
   485   460   468      1
   486   461   462      1
   487   461   469      1
   488   461   470      1
   489   462   463      1
   490   462   464      1
   491   462   471      1
   492   463   472      1
   493   463   473      1
   494   464   465      1
   495   464   474      1
   496   464   475      1
   497   465   466      1
   498   465   476      1
   499   466   477      1
   500   466   478      1
   501   466   479      1
   502   479   480      1
   503   479   481      1
   504   479   482      1
   505   480   483      1
   506   480   484      1
   507   480   488      1
   508   485   486      1
   509   485   490      1
   510   485   492      1
   511   485   493      1
   512   486   487      1
   513   486   494      1
   514   486   495      1
   515   487   488      1
   516   487   489      1
   517   487   496      1
   518   488   497      1
   519   488   498      1
   520   489   490      1
   521   489   499      1
   522   489   500      1
   523   490   491      1
   524   490   501      1
   525   491   502      1
   526   491   503      1
   527   491   507      1
   528   504   505      1
   529   504   509      1
   530   504   511      1
   531   504   512      1
   532   505   506      1
   533   505   513      1
   534   505   514      1
   535   506   507      1
   536   506   508      1
   537   506   515      1
   538   507   516      1
   539   507   517      1
   540   508   509      1
   541   508   518      1
   542   508   519      1
   543   509   510      1
   544   509   520      1
   545   510   521      1
   546   510   522      1
   547   510   526      1
   548   523   524      1
   549   523   528      1
   550   523   530      1
   551   523   531      1
   552   524   525      1
   553   524   532      1
   554   524   533      1
   555   525   526      1
   556   525   527      1
   557   525   534      1
   558   526   535      1
   559   526   536      1
   560   527   528      1
   561   527   537      1
   562   527   538      1
   563   528   529      1
   564   528   539      1
   565   529   540      1
   566   529   541      1
   567   529   545      1
   568   542   543      1
   569   542   547      1
   570   542   549      1
   571   542   550      1
   572   543   544      1
   573   543   551      1
   574   543   552      1
   575   544   545      1
   576   544   546      1
   577   544   553      1
   578   545   554      1
   579   545   555      1
   580   546   547      1
   581   546   556      1
   582   546   557      1
   583   547   548      1
   584   547   558      1
   585   548   559      1
   586   548   560      1
   587   548   564      1
   588   561   562      1
   589   561   566      1
   590   561   568      1
   591   561   569      1
   592   562   563      1
   593   562   570      1
   594   562   571      1
   595   563   564      1
   596   563   565      1
   597   563   572      1
   598   564   573      1
   599   564   574      1
   600   565   566      1
   601   565   575      1
   602   565   576      1
   603   566   567      1
   604   566   577      1
   605   567   578      1
   606   567   579      1
   607   567   583      1
   608   580   581      1
   609   580   585      1
   610   580   587      1
   611   580   588      1
   612   581   582      1
   613   581   589      1
   614   581   590      1
   615   582   583      1
   616   582   584      1
   617   582   591      1
   618   583   592      1
   619   583   593      1
   620   584   585      1
   621   584   594      1
   622   584   595      1
   623   585   586      1
   624   585   596      1
   625   586   597      1
   626   586   598      1
   627   586   602      1
   628   599   600      1
   629   599   604      1
   630   599   606      1
   631   599   607      1
   632   600   601      1
   633   600   608      1
   634   600   609      1
   635   601   602      1
   636   601   603      1
   637   601   610      1
   638   602   611      1
   639   602   612      1
   640   603   604      1
   641   603   613      1
   642   603   614      1
   643   604   605      1
   644   604   615      1
   645   605   616      1
   646   605   617      1
   647   605   621      1
   648   618   619      1
   649   618   623      1
   650   618   625      1
   651   618   626      1
   652   619   620      1
   653   619   627      1
   654   619   628      1
   655   620   621      1
   656   620   622      1
   657   620   629      1
   658   621   630      1
   659   621   631      1
   660   622   623      1
   661   622   632      1
   662   622   633      1
   663   623   624      1
   664   623   634      1
   665   624   635      1
   666   624   636      1
   667   624   640      1
   668   637   638      1
   669   637   642      1
   670   637   644      1
   671   637   645      1
   672   638   639      1
   673   638   646      1
   674   638   647      1
   675   639   640      1
   676   639   641      1
   677   639   648      1
   678   640   649      1
   679   640   650      1
   680   641   642      1
   681   641   651      1
   682   641   652      1
   683   642   643      1
   684   642   653      1
   685   643   654      1
   686   643   655      1
   687   643   659      1
   688   656   657      1
   689   656   661      1
   690   656   663      1
   691   656   664      1
   692   657   658      1
   693   657   665      1
   694   657   666      1
   695   658   659      1
   696   658   660      1
   697   658   667      1
   698   659   668      1
   699   659   669      1
   700   660   661      1
   701   660   670      1
   702   660   671      1
   703   661   662      1
   704   661   672      1
   705   662   673      1
   706   662   674      1
   707   662   675      1
   708   675   676      1
   709   675   677      1
   710   675   678      1
   711   676   679      1
   712   676   680      1
   713   676   684      1
   714   681   682      1
   715   681   686      1
   716   681   688      1
   717   681   689      1
   718   682   683      1
   719   682   690      1
   720   682   691      1
   721   683   684      1
   722   683   685      1
   723   683   692      1
   724   684   693      1
   725   684   694      1
   726   685   686      1
   727   685   695      1
   728   685   696      1
   729   686   687      1
   730   686   697      1
   731   687   698      1
   732   687   699      1
   733   687   703      1
   734   700   701      1
   735   700   705      1
   736   700   707      1
   737   700   708      1
   738   701   702      1
   739   701   709      1
   740   701   710      1
   741   702   703      1
   742   702   704      1
   743   702   711      1
   744   703   712      1
   745   703   713      1
   746   704   705      1
   747   704   714      1
   748   704   715      1
   749   705   706      1
   750   705   716      1
   751   706   717      1
   752   706   718      1
   753   706   722      1
   754   719   720      1
   755   719   724      1
   756   719   726      1
   757   719   727      1
   758   720   721      1
   759   720   728      1
   760   720   729      1
   761   721   722      1
   762   721   723      1
   763   721   730      1
   764   722   731      1
   765   722   732      1
   766   723   724      1
   767   723   733      1
   768   723   734      1
   769   724   725      1
   770   724   735      1
   771   725   736      1
   772   725   737      1
   773   725   741      1
   774   738   739      1
   775   738   743      1
   776   738   745      1
   777   738   746      1
   778   739   740      1
   779   739   747      1
   780   739   748      1
   781   740   741      1
   782   740   742      1
   783   740   749      1
   784   741   750      1
   785   741   751      1
   786   742   743      1
   787   742   752      1
   788   742   753      1
   789   743   744      1
   790   743   754      1
   791   744   755      1
   792   744   756      1
   793   744   760      1
   794   757   758      1
   795   757   762      1
   796   757   764      1
   797   757   765      1
   798   758   759      1
   799   758   766      1
   800   758   767      1
   801   759   760      1
   802   759   761      1
   803   759   768      1
   804   760   769      1
   805   760   770      1
   806   761   762      1
   807   761   771      1
   808   761   772      1
   809   762   763      1
   810   762   773      1
   811   763   774      1
   812   763   775      1
   813   763   779      1
   814   776   777      1
   815   776   781      1
   816   776   783      1
   817   776   784      1
   818   777   778      1
   819   777   785      1
   820   777   786      1
   821   778   779      1
   822   778   780      1
   823   778   787      1
   824   779   788      1
   825   779   789      1
   826   780   781      1
   827   780   790      1
   828   780   791      1
   829   781   782      1
   830   781   792      1
   831   782   793      1
   832   782   794      1
   833   782   795      1
   834   795   796      1
   835   795   797      1
   836   795   798      1
   837   796   799      1
   838   796   800      1
   839   796   804      1
   840   801   802      1
   841   801   806      1
   842   801   808      1
   843   801   809      1
   844   802   803      1
   845   802   810      1
   846   802   811      1
   847   803   804      1
   848   803   805      1
   849   803   812      1
   850   804   813      1
   851   804   814      1
   852   805   806      1
   853   805   815      1
   854   805   816      1
   855   806   807      1
   856   806   817      1
   857   807   818      1
   858   807   819      1
   859   807   823      1
   860   820   821      1
   861   820   825      1
   862   820   827      1
   863   820   828      1
   864   821   822      1
   865   821   829      1
   866   821   830      1
   867   822   823      1
   868   822   824      1
   869   822   831      1
   870   823   832      1
   871   823   833      1
   872   824   825      1
   873   824   834      1
   874   824   835      1
   875   825   826      1
   876   825   836      1
   877   826   837      1
   878   826   838      1
   879   826   839      1
   880   839   840      1
   881   839   841      1
   882   839   842      1
   883   840   843      1
   884   840   844      1
   885   840   848      1
   886   845   846      1
   887   845   850      1
   888   845   852      1
   889   845   853      1
   890   846   847      1
   891   846   854      1
   892   846   855      1
   893   847   848      1
   894   847   849      1
   895   847   856      1
   896   848   857      1
   897   848   858      1
   898   849   850      1
   899   849   859      1
   900   849   860      1
   901   850   851      1
   902   850   861      1
   903   851   862      1
   904   851   863      1
   905   851   867      1
   906   864   865      1
   907   864   869      1
   908   864   871      1
   909   864   872      1
   910   865   866      1
   911   865   873      1
   912   865   874      1
   913   866   867      1
   914   866   868      1
   915   866   875      1
   916   867   876      1
   917   867   877      1
   918   868   869      1
   919   868   878      1
   920   868   879      1
   921   869   870      1
   922   869   880      1
   923   870   881      1
   924   870   882      1
   925   870   883      1
   926   883   884      1
   927   883   885      1
   928   883   886      1
   929   884   887      1
   930   884   888      1
   931   884   892      1
   932   889   890      1
   933   889   894      1
   934   889   896      1
   935   889   897      1
   936   890   891      1
   937   890   898      1
   938   890   899      1
   939   891   892      1
   940   891   893      1
   941   891   900      1
   942   892   901      1
   943   892   902      1
   944   893   894      1
   945   893   903      1
   946   893   904      1
   947   894   895      1
   948   894   905      1
   949   895   906      1
   950   895   907      1
   951   895   908      1
   952   908   909      1
   953   908   910      1
   954   908   911      1
   955   909   912      1
   956   909   913      1
   957   909   917      1
   958   914   915      1
   959   914   919      1
   960   914   921      1
   961   914   922      1
   962   915   916      1
   963   915   923      1
   964   915   924      1
   965   916   917      1
   966   916   918      1
   967   916   925      1
   968   917   926      1
   969   917   927      1
   970   918   919      1
   971   918   928      1
   972   918   929      1
   973   919   920      1
   974   919   930      1
   975   920   931      1
   976   920   932      1
   977   920   936      1
   978   933   934      1
   979   933   938      1
   980   933   940      1
   981   933   941      1
   982   934   935      1
   983   934   942      1
   984   934   943      1
   985   935   936      1
   986   935   937      1
   987   935   944      1
   988   936   945      1
   989   936   946      1
   990   937   938      1
   991   937   947      1
   992   937   948      1
   993   938   939      1
   994   938   949      1
   995   939   950      1
   996   939   951      1
   997   939   955      1
   998   952   953      1
   999   952   957      1
  1000   952   959      1
  1001   952   960      1
  1002   953   954      1
  1003   953   961      1
  1004   953   962      1
  1005   954   955      1
  1006   954   956      1
  1007   954   963      1
  1008   955   964      1
  1009   955   965      1
  1010   956   957      1
  1011   956   966      1
  1012   956   967      1
  1013   957   958      1
  1014   957   968      1
  1015   958   969      1
  1016   958   970      1
  1017   958   971      1
  1018   971   972      1
  1019   971   973      1
  1020   971   974      1
  1021   972   975      1
  1022   972   976      1
  1023   972   980      1
  1024   977   978      1
  1025   977   982      1
  1026   977   984      1
  1027   977   985      1
  1028   978   979      1
  1029   978   986      1
  1030   978   987      1
  1031   979   980      1
  1032   979   981      1
  1033   979   988      1
  1034   980   989      1
  1035   980   990      1
  1036   981   982      1
  1037   981   991      1
  1038   981   992      1
  1039   982   983      1
  1040   982   993      1
  1041   983   994      1
  1042   983   995      1
  1043   983   999      1
  1044   996   997      1
  1045   996  1001      1
  1046   996  1003      1
  1047   996  1004      1
  1048   997   998      1
  1049   997  1005      1
  1050   997  1006      1
  1051   998   999      1
  1052   998  1000      1
  1053   998  1007      1
  1054   999  1008      1
  1055   999  1009      1
  1056  1000  1001      1
  1057  1000  1010      1
  1058  1000  1011      1
  1059  1001  1002      1
  1060  1001  1012      1
  1061  1002  1013      1
  1062  1002  1014      1
  1063  1002  1015      1
  1064  1015  1016      1
  1065  1015  1017      1
  1066  1015  1018      1
  1067  1016  1019      1
  1068  1016  1020      1
  1069  1016  1024      1
  1070  1021  1022      1
  1071  1021  1026      1
  1072  1021  1028      1
  1073  1021  1029      1
  1074  1022  1023      1
  1075  1022  1030      1
  1076  1022  1031      1
  1077  1023  1024      1
  1078  1023  1025      1
  1079  1023  1032      1
  1080  1024  1033      1
  1081  1024  1034      1
  1082  1025  1026      1
  1083  1025  1035      1
  1084  1025  1036      1
  1085  1026  1027      1
  1086  1026  1037      1
  1087  1027  1038      1
  1088  1027  1039      1
  1089  1027  1043      1
  1090  1040  1041      1
  1091  1040  1045      1
  1092  1040  1047      1
  1093  1040  1048      1
  1094  1041  1042      1
  1095  1041  1049      1
  1096  1041  1050      1
  1097  1042  1043      1
  1098  1042  1044      1
  1099  1042  1051      1
  1100  1043  1052      1
  1101  1043  1053      1
  1102  1044  1045      1
  1103  1044  1054      1
  1104  1044  1055      1
  1105  1045  1046      1
  1106  1045  1056      1
  1107  1046  1057      1
  1108  1046  1058      1
  1109  1046  1059      1
  1110  1059  1060      1
  1111  1059  1061      1
  1112  1059  1062      1
  1113  1060  1063      1
  1114  1060  1064      1
  1115  1060  1068      1
  1116  1065  1066      1
  1117  1065  1070      1
  1118  1065  1072      1
  1119  1065  1073      1
  1120  1066  1067      1
  1121  1066  1074      1
  1122  1066  1075      1
  1123  1067  1068      1
  1124  1067  1069      1
  1125  1067  1076      1
  1126  1068  1077      1
  1127  1068  1078      1
  1128  1069  1070      1
  1129  1069  1079      1
  1130  1069  1080      1
  1131  1070  1071      1
  1132  1070  1081      1
  1133  1071  1082      1
  1134  1071  1083      1
  1135  1071  1087      1
  1136  1084  1085      1
  1137  1084  1089      1
  1138  1084  1091      1
  1139  1084  1092      1
  1140  1085  1086      1
  1141  1085  1093      1
  1142  1085  1094      1
  1143  1086  1087      1
  1144  1086  1088      1
  1145  1086  1095      1
  1146  1087  1096      1
  1147  1087  1097      1
  1148  1088  1089      1
  1149  1088  1098      1
  1150  1088  1099      1
  1151  1089  1090      1
  1152  1089  1100      1
  1153  1090  1101      1
  1154  1090  1102      1
  1155  1090  1103      1
  1156  1103  1104      1
  1157  1103  1105      1
  1158  1103  1106      1
  1159  1104  1107      1
  1160  1104  1108      1
  1161  1104  1109      1
  1162  1109  1110      1
  1163  1109  1111      1
  1164  1109  1112      1
  1165  1110  1113      1
  1166  1110  1114      1
  1167  1110  1118      1
  1168  1115  1116      1
  1169  1115  1120      1
  1170  1115  1122      1
  1171  1115  1123      1
  1172  1116  1117      1
  1173  1116  1124      1
  1174  1116  1125      1
  1175  1117  1118      1
  1176  1117  1119      1
  1177  1117  1126      1
  1178  1118  1127      1
  1179  1118  1128      1
  1180  1119  1120      1
  1181  1119  1129      1
  1182  1119  1130      1
  1183  1120  1121      1
  1184  1120  1131      1
  1185  1121  1132      1
  1186  1121  1133      1
  1187  1121  1137      1
  1188  1134  1135      1
  1189  1134  1139      1
  1190  1134  1141      1
  1191  1134  1142      1
  1192  1135  1136      1
  1193  1135  1143      1
  1194  1135  1144      1
  1195  1136  1137      1
  1196  1136  1138      1
  1197  1136  1145      1
  1198  1137  1146      1
  1199  1137  1147      1
  1200  1138  1139      1
  1201  1138  1148      1
  1202  1138  1149      1
  1203  1139  1140      1
  1204  1139  1150      1
  1205  1140  1151      1
  1206  1140  1152      1
  1207  1140  1153      1
  1208  1153  1154      1
  1209  1153  1155      1
  1210  1153  1156      1
  1211  1154  1157      1
  1212  1154  1158      1
  1213  1154  1162      1
  1214  1159  1160      1
  1215  1159  1164      1
  1216  1159  1166      1
  1217  1159  1167      1
  1218  1160  1161      1
  1219  1160  1168      1
  1220  1160  1169      1
  1221  1161  1162      1
  1222  1161  1163      1
  1223  1161  1170      1
  1224  1162  1171      1
  1225  1162  1172      1
  1226  1163  1164      1
  1227  1163  1173      1
  1228  1163  1174      1
  1229  1164  1165      1
  1230  1164  1175      1
  1231  1165  1176      1
  1232  1165  1177      1
  1233  1165  1181      1
  1234  1178  1179      1
  1235  1178  1183      1
  1236  1178  1185      1
  1237  1178  1186      1
  1238  1179  1180      1
  1239  1179  1187      1
  1240  1179  1188      1
  1241  1180  1181      1
  1242  1180  1182      1
  1243  1180  1189      1
  1244  1181  1190      1
  1245  1181  1191      1
  1246  1182  1183      1
  1247  1182  1192      1
  1248  1182  1193      1
  1249  1183  1184      1
  1250  1183  1194      1
  1251  1184  1195      1
  1252  1184  1196      1
  1253  1184  1200      1
  1254  1197  1198      1
  1255  1197  1202      1
  1256  1197  1204      1
  1257  1197  1205      1
  1258  1198  1199      1
  1259  1198  1206      1
  1260  1198  1207      1
  1261  1199  1200      1
  1262  1199  1201      1
  1263  1199  1208      1
  1264  1200  1209      1
  1265  1200  1210      1
  1266  1201  1202      1
  1267  1201  1211      1
  1268  1201  1212      1
  1269  1202  1203      1
  1270  1202  1213      1
  1271  1203  1214      1
  1272  1203  1215      1
  1273  1203  1219      1
  1274  1216  1217      1
  1275  1216  1221      1
  1276  1216  1223      1
  1277  1216  1224      1
  1278  1217  1218      1
  1279  1217  1225      1
  1280  1217  1226      1
  1281  1218  1219      1
  1282  1218  1220      1
  1283  1218  1227      1
  1284  1219  1228      1
  1285  1219  1229      1
  1286  1220  1221      1
  1287  1220  1230      1
  1288  1220  1231      1
  1289  1221  1222      1
  1290  1221  1232      1
  1291  1222  1233      1
  1292  1222  1234      1
  1293  1222  1235      1
  1294  1235  1236      1
  1295  1235  1237      1
  1296  1235  1238      1
  1297  1236  1239      1
  1298  1236  1240      1
  1299  1236  1244      1
  1300  1241  1242      1
  1301  1241  1246      1
  1302  1241  1248      1
  1303  1241  1249      1
  1304  1242  1243      1
  1305  1242  1250      1
  1306  1242  1251      1
  1307  1243  1244      1
  1308  1243  1245      1
  1309  1243  1252      1
  1310  1244  1253      1
  1311  1244  1254      1
  1312  1245  1246      1
  1313  1245  1255      1
  1314  1245  1256      1
  1315  1246  1247      1
  1316  1246  1257      1
  1317  1247  1258      1
  1318  1247  1259      1
  1319  1247  1260      1
  1320  1260  1261      1
  1321  1260  1262      1
  1322  1260  1263      1
  1323  1261  1264      1
  1324  1261  1265      1
  1325  1261  1269      1
  1326  1266  1267      1
  1327  1266  1271      1
  1328  1266  1273      1
  1329  1266  1274      1
  1330  1267  1268      1
  1331  1267  1275      1
  1332  1267  1276      1
  1333  1268  1269      1
  1334  1268  1270      1
  1335  1268  1277      1
  1336  1269  1278      1
  1337  1269  1279      1
  1338  1270  1271      1
  1339  1270  1280      1
  1340  1270  1281      1
  1341  1271  1272      1
  1342  1271  1282      1
  1343  1272  1283      1
  1344  1272  1284      1
  1345  1272  1288      1
  1346  1285  1286      1
  1347  1285  1290      1
  1348  1285  1292      1
  1349  1285  1293      1
  1350  1286  1287      1
  1351  1286  1294      1
  1352  1286  1295      1
  1353  1287  1288      1
  1354  1287  1289      1
  1355  1287  1296      1
  1356  1288  1297      1
  1357  1288  1298      1
  1358  1289  1290      1
  1359  1289  1299      1
  1360  1289  1300      1
  1361  1290  1291      1
  1362  1290  1301      1
  1363  1291  1302      1
  1364  1291  1303      1
  1365  1291  1307      1
  1366  1304  1305      1
  1367  1304  1309      1
  1368  1304  1311      1
  1369  1304  1312      1
  1370  1305  1306      1
  1371  1305  1313      1
  1372  1305  1314      1
  1373  1306  1307      1
  1374  1306  1308      1
  1375  1306  1315      1
  1376  1307  1316      1
  1377  1307  1317      1
  1378  1308  1309      1
  1379  1308  1318      1
  1380  1308  1319      1
  1381  1309  1310      1
  1382  1309  1320      1
  1383  1310  1321      1
  1384  1310  1322      1
  1385  1310  1326      1
  1386  1323  1324      1
  1387  1323  1328      1
  1388  1323  1330      1
  1389  1323  1331      1
  1390  1324  1325      1
  1391  1324  1332      1
  1392  1324  1333      1
  1393  1325  1326      1
  1394  1325  1327      1
  1395  1325  1334      1
  1396  1326  1335      1
  1397  1326  1336      1
  1398  1327  1328      1
  1399  1327  1337      1
  1400  1327  1338      1
  1401  1328  1329      1
  1402  1328  1339      1
  1403  1329  1340      1
  1404  1329  1341      1
  1405  1329  1342      1
  1406  1342  1343      1
  1407  1342  1344      1
  1408  1342  1345      1
  1409  1343  1346      1
  1410  1343  1347      1
  1411  1343  1348      1
  1412  1348  1349      1
  1413  1348  1350      1
  1414  1348  1351      1
  1415  1349  1352      1
  1416  1349  1353      1
  1417  1349  1357      1
  1418  1354  1355      1
  1419  1354  1359      1
  1420  1354  1361      1
  1421  1354  1362      1
  1422  1355  1356      1
  1423  1355  1363      1
  1424  1355  1364      1
  1425  1356  1357      1
  1426  1356  1358      1
  1427  1356  1365      1
  1428  1357  1366      1
  1429  1357  1367      1
  1430  1358  1359      1
  1431  1358  1368      1
  1432  1358  1369      1
  1433  1359  1360      1
  1434  1359  1370      1
  1435  1360  1371      1
  1436  1360  1372      1
  1437  1360  1373      1
  1438  1373  1374      1
  1439  1373  1375      1
  1440  1373  1376      1
  1441  1374  1377      1
  1442  1374  1378      1
  1443  1374  1382      1
  1444  1379  1380      1
  1445  1379  1384      1
  1446  1379  1386      1
  1447  1379  1387      1
  1448  1380  1381      1
  1449  1380  1388      1
  1450  1380  1389      1
  1451  1381  1382      1
  1452  1381  1383      1
  1453  1381  1390      1
  1454  1382  1391      1
  1455  1382  1392      1
  1456  1383  1384      1
  1457  1383  1393      1
  1458  1383  1394      1
  1459  1384  1385      1
  1460  1384  1395      1
  1461  1385  1396      1
  1462  1385  1397      1
  1463  1385  1398      1
  1464  1398  1399      1
  1465  1398  1400      1
  1466  1398  1401      1
  1467  1399  1402      1
  1468  1399  1403      1
  1469  1399  1404      1
  1470  1404  1405      1
  1471  1404  1406      1
  1472  1404  1407      1
  1473  1405  1408      1
  1474  1405  1409      1
  1475  1405  1413      1
  1476  1410  1411      1
  1477  1410  1415      1
  1478  1410  1417      1
  1479  1410  1418      1
  1480  1411  1412      1
  1481  1411  1419      1
  1482  1411  1420      1
  1483  1412  1413      1
  1484  1412  1414      1
  1485  1412  1421      1
  1486  1413  1422      1
  1487  1413  1423      1
  1488  1414  1415      1
  1489  1414  1424      1
  1490  1414  1425      1
  1491  1415  1416      1
  1492  1415  1426      1
  1493  1416  1427      1
  1494  1416  1428      1
  1495  1416  1432      1
  1496  1429  1430      1
  1497  1429  1434      1
  1498  1429  1436      1
  1499  1429  1437      1
  1500  1430  1431      1
  1501  1430  1438      1
  1502  1430  1439      1
  1503  1431  1432      1
  1504  1431  1433      1
  1505  1431  1440      1
  1506  1432  1441      1
  1507  1432  1442      1
  1508  1433  1434      1
  1509  1433  1443      1
  1510  1433  1444      1
  1511  1434  1435      1
  1512  1434  1445      1
  1513  1435  1446      1
  1514  1435  1447      1
  1515  1435  1451      1
  1516  1448  1449      1
  1517  1448  1453      1
  1518  1448  1455      1
  1519  1448  1456      1
  1520  1449  1450      1
  1521  1449  1457      1
  1522  1449  1458      1
  1523  1450  1451      1
  1524  1450  1452      1
  1525  1450  1459      1
  1526  1451  1460      1
  1527  1451  1461      1
  1528  1452  1453      1
  1529  1452  1462      1
  1530  1452  1463      1
  1531  1453  1454      1
  1532  1453  1464      1
  1533  1454  1465      1
  1534  1454  1466      1
  1535  1454  1467      H
