###
### Created by PolyChef-cpp17 on Wed Feb 26 21:14:13 2025
###

@<TRIPOS>MOLECULE
NO_INFO
1160 1213 1 0 0
SMALL
USER_CHARGES


@<TRIPOS>ATOM
      1 C         243.8361  147.2839  124.9209 C.3       0        0    0.0000
      2 C         243.9511  146.6862  123.5255 C.3       0        0    0.0000
      3 C         245.4322  146.8876  123.1886 C.3       0        0    0.0000
      4 C         245.7928  146.7567  121.7057 C.3       0        0    0.0000
      5 C         245.8212  148.2234  123.8517 C.3       0        0    0.0000
      6 C         244.6661  148.5672  124.8124 C.3       0        0    0.0000
      7 C         245.0813  149.1963  126.1459 C.3       0        0    0.0000
      8 H         242.7961  147.4886  125.1934 H         0        0    0.0000
      9 H         244.2498  146.5864  125.6574 H         0        0    0.0000
     10 H         243.6654  145.6299  123.5084 H         0        0    0.0000
     11 H         243.2943  147.2276  122.8358 H         0        0    0.0000
     12 H         245.9894  146.0988  123.7164 H         0        0    0.0000
     13 H         245.0307  147.2676  121.1055 H         0        0    0.0000
     14 H         246.7404  147.2762  121.5201 H         0        0    0.0000
     15 H         245.9501  149.0360  123.1286 H         0        0    0.0000
     16 H         246.7825  148.1112  124.3646 H         0        0    0.0000
     17 H         244.0383  149.3106  124.2983 H         0        0    0.0000
     18 H         244.2920  149.0197  126.8862 H         0        0    0.0000
     19 H         245.9802  148.6896  126.5167 H         0        0    0.0000
     20 C         246.1392  152.7853  129.0603 C.3       1        0    0.0000
     21 C         246.0190  151.3734  128.4816 C.3       1        0    0.0000
     22 C         244.9611  151.4437  127.3657 C.3       1        0    0.0000
     23 C         245.3644  150.7268  126.0713 C.3       1        0    0.0000
     24 C         244.7283  152.9431  127.1540 C.3       1        0    0.0000
     25 C         244.9253  153.5637  128.5413 C.3       1        0    0.0000
     26 C         243.6804  153.4107  129.4356 C.3       1        0    0.0000
     27 H         246.2221  152.7727  130.1513 H         1        0    0.0000
     28 H         247.0558  153.2487  128.6735 H         1        0    0.0000
     29 H         246.9956  151.0316  128.1213 H         1        0    0.0000
     30 H         245.6954  150.6695  129.2572 H         1        0    0.0000
     31 H         244.0283  151.0040  127.7466 H         1        0    0.0000
     32 H         244.7959  151.1453  125.2322 H         1        0    0.0000
     33 H         246.4249  150.8978  125.8533 H         1        0    0.0000
     34 H         243.7390  153.1490  126.7327 H         1        0    0.0000
     35 H         245.4753  153.3516  126.4611 H         1        0    0.0000
     36 H         245.1712  154.6281  128.4366 H         1        0    0.0000
     37 H         243.9572  153.3645  130.4947 H         1        0    0.0000
     38 H         243.1747  152.4674  129.1971 H         1        0    0.0000
     39 C         242.6670  154.5716  129.2185 C.3       2        0    0.0000
     40 C         241.5340  154.6125  130.2538 C.3       2        0    0.0000
     41 H         243.2352  155.5072  129.2984 H         2        0    0.0000
     42 H         242.2722  154.5311  128.1965 H         2        0    0.0000
     43 H         240.5863  154.9198  129.7961 H         2        0    0.0000
     44 H         241.3832  153.5940  130.6339 H         2        0    0.0000
     45 C         239.8132  154.8597  134.5352 C.3       3        0    0.0000
     46 C         240.1090  154.4564  133.0886 C.3       3        0    0.0000
     47 C         240.5942  155.7271  132.3680 C.3       3        0    0.0000
     48 C         241.8389  155.5189  131.4965 C.3       3        0    0.0000
     49 C         240.8330  156.7375  133.4946 C.3       3        0    0.0000
     50 C         239.7797  156.3918  134.5526 C.3       3        0    0.0000
     51 C         238.3934  156.9710  134.2126 C.3       3        0    0.0000
     52 H         238.8963  154.3937  134.9086 H         3        0    0.0000
     53 H         240.6345  154.5106  135.1742 H         3        0    0.0000
     54 H         240.8476  153.6475  133.0685 H         3        0    0.0000
     55 H         239.2010  154.0780  132.6048 H         3        0    0.0000
     56 H         239.7730  156.1028  131.7410 H         3        0    0.0000
     57 H         242.1981  156.4911  131.1383 H         3        0    0.0000
     58 H         242.6504  155.0782  132.0869 H         3        0    0.0000
     59 H         240.7576  157.7710  133.1413 H         3        0    0.0000
     60 H         241.8362  156.6050  133.9201 H         3        0    0.0000
     61 H         240.1033  156.7692  135.5309 H         3        0    0.0000
     62 H         237.5986  156.2489  134.4301 H         3        0    0.0000
     63 H         238.3425  157.1868  133.1387 H         3        0    0.0000
     64 C         238.1141  158.2924  134.9857 C.3       4        0    0.0000
     65 C         236.6272  158.5440  135.2743 C.3       4        0    0.0000
     66 H         238.6389  158.2144  135.9464 H         4        0    0.0000
     67 H         238.5648  159.1362  134.4501 H         4        0    0.0000
     68 H         236.0203  158.4308  134.3684 H         4        0    0.0000
     69 H         236.2830  157.7774  135.9804 H         4        0    0.0000
     70 C         234.0641  158.3730  137.7237 C.3       5        0    0.0000
     71 C         234.0843  158.8009  136.2538 C.3       5        0    0.0000
     72 C         234.8291  160.1393  136.1985 C.3       5        0    0.0000
     73 C         236.3332  159.9344  135.9370 C.3       5        0    0.0000
     74 C         234.4995  160.7471  137.5679 C.3       5        0    0.0000
     75 C         234.5885  159.5669  138.5387 C.3       5        0    0.0000
     76 C         233.8286  159.8273  139.8443 C.3       5        0    0.0000
     77 H         233.0466  158.0846  138.0112 H         5        0    0.0000
     78 H         234.7055  157.4980  137.8792 H         5        0    0.0000
     79 H         233.0511  158.9473  135.9141 H         5        0    0.0000
     80 H         234.5269  158.0336  135.6107 H         5        0    0.0000
     81 H         234.4108  160.7649  135.3996 H         5        0    0.0000
     82 H         236.8744  159.9826  136.8896 H         5        0    0.0000
     83 H         236.7392  160.7326  135.3065 H         5        0    0.0000
     84 H         233.4780  161.1491  137.5505 H         5        0    0.0000
     85 H         235.1678  161.5638  137.8567 H         5        0    0.0000
     86 H         235.6478  159.3885  138.7715 H         5        0    0.0000
     87 H         234.5277  160.0919  140.6461 H         5        0    0.0000
     88 H         233.3180  158.9091  140.1576 H         5        0    0.0000
     89 C         233.2596  163.0424  142.7873 C.3       6        0    0.0000
     90 C         233.5896  161.8129  141.9369 C.3       6        0    0.0000
     91 C         232.3784  161.5834  141.0235 C.3       6        0    0.0000
     92 C         232.7710  160.9567  139.6826 C.3       6        0    0.0000
     93 C         231.7528  162.9782  140.9175 C.3       6        0    0.0000
     94 C         231.8627  163.5045  142.3524 C.3       6        0    0.0000
     95 C         231.6806  165.0183  142.4925 C.3       6        0    0.0000
     96 H         233.2800  162.8064  143.8567 H         6        0    0.0000
     97 H         234.0123  163.8203  142.6119 H         6        0    0.0000
     98 H         233.7826  160.9342  142.5616 H         6        0    0.0000
     99 H         234.4998  162.0046  141.3559 H         6        0    0.0000
    100 H         231.6739  160.9220  141.5484 H         6        0    0.0000
    101 H         233.1864  161.7325  139.0283 H         6        0    0.0000
    102 H         231.8849  160.5570  139.1758 H         6        0    0.0000
    103 H         230.7137  162.9355  140.5760 H         6        0    0.0000
    104 H         232.3189  163.6110  140.2226 H         6        0    0.0000
    105 H         231.1204  162.9837  142.9748 H         6        0    0.0000
    106 H         231.0857  165.4086  141.6584 H         6        0    0.0000
    107 H         232.6605  165.5074  142.4379 H         6        0    0.0000
    108 C         231.0070  165.4107  143.8361 C.3       7        0    0.0000
    109 C         231.2544  166.8666  144.2563 C.3       7        0    0.0000
    110 H         229.9264  165.2745  143.7004 H         7        0    0.0000
    111 H         231.3148  164.7110  144.6219 H         7        0    0.0000
    112 H         232.2218  167.2288  143.8889 H         7        0    0.0000
    113 H         230.4857  167.4923  143.7850 H         7        0    0.0000
    114 C         231.1513  167.1100  145.8018 C.3       8        0    0.0000
    115 C         231.1048  168.5926  146.1982 C.3       8        0    0.0000
    116 H         232.0473  166.6649  146.2531 H         8        0    0.0000
    117 H         230.2919  166.5620  146.2056 H         8        0    0.0000
    118 H         232.1374  168.9515  146.2956 H         8        0    0.0000
    119 H         230.6344  169.2000  145.4160 H         8        0    0.0000
    120 C         230.4000  168.8629  147.5725 C.3       9        0    0.0000
    121 C         229.4068  170.0335  147.5448 C.3       9        0    0.0000
    122 H         229.8449  167.9514  147.8285 H         9        0    0.0000
    123 H         231.1559  168.9996  148.3548 H         9        0    0.0000
    124 H         229.9102  170.9883  147.7367 H         9        0    0.0000
    125 H         228.9855  170.0986  146.5334 H         9        0    0.0000
    126 C         228.1976  169.8664  148.5289 C.3      10        0    0.0000
    127 C         228.4313  170.4842  149.9149 C.3      10        0    0.0000
    128 H         228.0415  168.7879  148.6588 H        10        0    0.0000
    129 H         227.2863  170.2614  148.0648 H        10        0    0.0000
    130 H         229.5125  170.4993  150.1030 H        10        0    0.0000
    131 H         228.0926  171.5263  149.9495 H        10        0    0.0000
    132 C         229.0785  166.1142  150.8482 C.3      11        0    0.0000
    133 C         228.8047  167.4684  150.2091 C.3      11        0    0.0000
    134 C         228.4839  168.3570  151.4154 C.3      11        0    0.0000
    135 C         227.7787  169.6773  151.0904 C.3      11        0    0.0000
    136 C         227.7491  167.4388  152.4116 C.3      11        0    0.0000
    137 C         227.9696  166.0020  151.8995 C.3      11        0    0.0000
    138 C         228.1949  164.9423  152.9823 C.3      11        0    0.0000
    139 H         229.0358  165.3009  150.1170 H        11        0    0.0000
    140 H         230.0765  166.1133  151.3001 H        11        0    0.0000
    141 H         229.6675  167.8363  149.6452 H        11        0    0.0000
    142 H         227.9570  167.3876  149.5197 H        11        0    0.0000
    143 H         229.4453  168.6225  151.8805 H        11        0    0.0000
    144 H         226.7319  169.4713  150.8377 H        11        0    0.0000
    145 H         227.7680  170.3081  151.9872 H        11        0    0.0000
    146 H         226.6751  167.6462  152.4691 H        11        0    0.0000
    147 H         228.1486  167.5978  153.4191 H        11        0    0.0000
    148 H         227.0519  165.7126  151.3655 H        11        0    0.0000
    149 H         228.3080  163.9615  152.5054 H        11        0    0.0000
    150 H         229.1393  165.1524  153.4984 H        11        0    0.0000
    151 C         223.8495  165.3672  152.1190 C.3      12        0    0.0000
    152 C         225.3746  165.2417  152.1665 C.3      12        0    0.0000
    153 C         225.7918  165.6003  153.5988 C.3      12        0    0.0000
    154 C         227.0546  164.8557  154.0408 C.3      12        0    0.0000
    155 C         224.5387  165.2746  154.4184 C.3      12        0    0.0000
    156 C         223.4088  165.7965  153.5246 C.3      12        0    0.0000
    157 C         222.0164  165.2706  153.8840 C.3      12        0    0.0000
    158 H         223.5313  166.0977  151.3674 H        12        0    0.0000
    159 H         223.4123  164.4014  151.8389 H        12        0    0.0000
    160 H         225.8537  165.9065  151.4397 H        12        0    0.0000
    161 H         225.6646  164.2160  151.9090 H        12        0    0.0000
    162 H         225.9677  166.6850  153.6430 H        12        0    0.0000
    163 H         226.8125  163.7992  154.2069 H        12        0    0.0000
    164 H         227.4142  165.2517  154.9978 H        12        0    0.0000
    165 H         224.5490  165.7689  155.3951 H        12        0    0.0000
    166 H         224.4447  164.1934  154.5796 H        12        0    0.0000
    167 H         223.4101  166.8956  153.5633 H        12        0    0.0000
    168 H         221.9205  164.2181  153.5925 H        12        0    0.0000
    169 H         221.2616  165.8263  153.3148 H        12        0    0.0000
    170 C         221.7013  165.4187  155.3978 C.3      13        0    0.0000
    171 C         220.2314  165.1590  155.7575 C.3      13        0    0.0000
    172 H         222.3165  164.6771  155.9235 H        13        0    0.0000
    173 H         222.0298  166.4039  155.7489 H        13        0    0.0000
    174 H         219.9859  164.0927  155.6873 H        13        0    0.0000
    175 H         220.0813  165.4471  156.8058 H        13        0    0.0000
    176 C         216.8492  164.9076  157.5001 C.3      14        0    0.0000
    177 C         217.9268  165.9193  157.1132 C.3      14        0    0.0000
    178 C         217.8387  166.0957  155.5874 C.3      14        0    0.0000
    179 C         219.2108  165.9930  154.9082 C.3      14        0    0.0000
    180 C         216.8315  165.0303  155.1281 C.3      14        0    0.0000
    181 C         215.8793  164.8495  156.3171 C.3      14        0    0.0000
    182 C         214.7875  165.9301  156.4208 C.3      14        0    0.0000
    183 H         217.3172  163.9237  157.6321 H        14        0    0.0000
    184 H         216.3644  165.1646  158.4472 H        14        0    0.0000
    185 H         218.9118  165.5743  157.4465 H        14        0    0.0000
    186 H         217.7386  166.8804  157.6060 H        14        0    0.0000
    187 H         217.4137  167.0894  155.3871 H        14        0    0.0000
    188 H         219.6181  166.9931  154.7195 H        14        0    0.0000
    189 H         219.0957  165.5086  153.9311 H        14        0    0.0000
    190 H         216.3178  165.3214  154.2066 H        14        0    0.0000
    191 H         217.3450  164.0801  154.9319 H        14        0    0.0000
    192 H         215.4059  163.8602  156.2755 H        14        0    0.0000
    193 H         214.2299  166.0230  155.4826 H        14        0    0.0000
    194 H         215.2593  166.9035  156.6023 H        14        0    0.0000
    195 C         213.7982  165.6507  157.5874 C.3      15        0    0.0000
    196 C         212.5770  166.5811  157.6062 C.3      15        0    0.0000
    197 H         213.4400  164.6212  157.4593 H        15        0    0.0000
    198 H         214.3359  165.6788  158.5424 H        15        0    0.0000
    199 H         212.1986  166.7220  158.6254 H        15        0    0.0000
    200 H         212.8962  167.5691  157.2506 H        15        0    0.0000
    201 C         209.5698  169.0955  155.5611 C.3      16        0    0.0000
    202 C         209.7580  167.5886  155.3923 C.3      16        0    0.0000
    203 C         210.1872  167.0414  156.7646 C.3      16        0    0.0000
    204 C         211.4089  166.1181  156.6682 C.3      16        0    0.0000
    205 C         210.4132  168.2904  157.6305 C.3      16        0    0.0000
    206 C         209.4471  169.3404  157.0673 C.3      16        0    0.0000
    207 C         207.9946  169.1864  157.5540 C.3      16        0    0.0000
    208 H         210.4631  169.6092  155.1832 H        16        0    0.0000
    209 H         208.7153  169.4702  154.9890 H        16        0    0.0000
    210 H         210.4886  167.3810  154.6029 H        16        0    0.0000
    211 H         208.8142  167.1206  155.0887 H        16        0    0.0000
    212 H         209.3422  166.4747  157.1807 H        16        0    0.0000
    213 H         211.7657  166.0653  155.6331 H        16        0    0.0000
    214 H         211.1172  165.1005  156.9547 H        16        0    0.0000
    215 H         210.2542  168.0868  158.6939 H        16        0    0.0000
    216 H         211.4433  168.6522  157.5156 H        16        0    0.0000
    217 H         209.8038  170.3501  157.3078 H        16        0    0.0000
    218 H         207.6123  168.1801  157.3518 H        16        0    0.0000
    219 H         207.3528  169.8823  157.0001 H        16        0    0.0000
    220 C         204.7607  167.7542  160.3459 C.3      17        0    0.0000
    221 C         205.7799  168.0285  159.2370 C.3      17        0    0.0000
    222 C         206.4003  169.3963  159.5510 C.3      17        0    0.0000
    223 C         207.8500  169.5022  159.0696 C.3      17        0    0.0000
    224 C         206.2204  169.5203  161.0676 C.3      17        0    0.0000
    225 C         204.8077  168.9676  161.2837 C.3      17        0    0.0000
    226 C         204.4828  168.5959  162.7332 C.3      17        0    0.0000
    227 H         203.7542  167.6117  159.9381 H        17        0    0.0000
    228 H         205.0323  166.8305  160.8709 H        17        0    0.0000
    229 H         205.3062  168.0296  158.2494 H        17        0    0.0000
    230 H         206.5374  167.2357  159.2331 H        17        0    0.0000
    231 H         205.7907  170.1696  159.0611 H        17        0    0.0000
    232 H         208.4712  168.7961  159.6337 H        17        0    0.0000
    233 H         208.2460  170.5040  159.2731 H        17        0    0.0000
    234 H         206.3102  170.5573  161.4066 H        17        0    0.0000
    235 H         206.9645  168.9167  161.6022 H        17        0    0.0000
    236 H         204.0815  169.7095  160.9208 H        17        0    0.0000
    237 H         204.2328  167.5310  162.8057 H        17        0    0.0000
    238 H         203.5956  169.1518  163.0593 H        17        0    0.0000
    239 C         206.0325  166.4790  166.4723 C.3      18        0    0.0000
    240 C         205.2149  166.9016  165.2493 C.3      18        0    0.0000
    241 C         205.3638  168.4286  165.1266 C.3      18        0    0.0000
    242 C         205.6526  168.9196  163.7027 C.3      18        0    0.0000
    243 C         206.4883  168.7826  166.1051 C.3      18        0    0.0000
    244 C         206.3434  167.7666  167.2431 C.3      18        0    0.0000
    245 C         205.2371  168.1566  168.2417 C.3      18        0    0.0000
    246 H         205.5131  165.7222  167.0679 H        18        0    0.0000
    247 H         206.9731  166.0287  166.1299 H        18        0    0.0000
    248 H         205.5668  166.3668  164.3602 H        18        0    0.0000
    249 H         204.1591  166.6406  165.3875 H        18        0    0.0000
    250 H         204.4367  168.8958  165.4887 H        18        0    0.0000
    251 H         205.8026  170.0057  163.7165 H        18        0    0.0000
    252 H         206.5809  168.4754  163.3254 H        18        0    0.0000
    253 H         206.4207  169.8196  166.4497 H        18        0    0.0000
    254 H         207.4669  168.6562  165.6243 H        18        0    0.0000
    255 H         207.2985  167.6714  167.7751 H        18        0    0.0000
    256 H         204.8359  169.1516  168.0191 H        18        0    0.0000
    257 H         205.6589  168.2020  169.2527 H        18        0    0.0000
    258 C         203.9018  165.9588  171.7681 C.3      19        0    0.0000
    259 C         204.7598  166.6141  170.6830 C.3      19        0    0.0000
    260 C         204.2659  166.0578  169.3355 C.3      19        0    0.0000
    261 C         204.0742  167.1224  168.2483 C.3      19        0    0.0000
    262 C         202.9609  165.3316  169.6774 C.3      19        0    0.0000
    263 C         203.1821  164.7865  171.0925 C.3      19        0    0.0000
    264 C         204.0066  163.4853  171.0986 C.3      19        0    0.0000
    265 H         204.4976  165.6686  172.6386 H        19        0    0.0000
    266 H         203.1568  166.6858  172.1161 H        19        0    0.0000
    267 H         204.6786  167.7047  170.7487 H        19        0    0.0000
    268 H         205.8163  166.3589  170.8262 H        19        0    0.0000
    269 H         204.9910  165.3096  168.9847 H        19        0    0.0000
    270 H         204.0357  166.6358  167.2664 H        19        0    0.0000
    271 H         203.1178  167.6403  168.3839 H        19        0    0.0000
    272 H         202.7260  164.5466  168.9512 H        19        0    0.0000
    273 H         202.1210  166.0384  169.6848 H        19        0    0.0000
    274 H         202.2121  164.6065  171.5732 H        19        0    0.0000
    275 H         204.7376  163.4838  171.9148 H        19        0    0.0000
    276 H         204.5735  163.4093  170.1631 H        19        0    0.0000
    277 C         203.0989  162.2269  171.2182 C.3      20        0    0.0000
    278 C         202.6871  161.6240  169.8674 C.3      20        0    0.0000
    279 H         203.6757  161.4711  171.7666 H        20        0    0.0000
    280 H         202.2228  162.4605  171.8344 H        20        0    0.0000
    281 H         203.5164  161.6478  169.1507 H        20        0    0.0000
    282 H         202.4410  160.5665  170.0275 H        20        0    0.0000
    283 C         201.8822  165.4684  171.0125 C.3      21        0    0.0000
    284 C         202.5595  164.3515  170.2200 C.3      21        0    0.0000
    285 C         201.5152  163.8239  169.2209 C.3      21        0    0.0000
    286 C         201.4195  162.2926  169.2313 C.3      21        0    0.0000
    287 C         200.2095  164.5354  169.6078 C.3      21        0    0.0000
    288 C         200.6533  165.8801  170.1978 C.3      21        0    0.0000
    289 C         200.9989  166.9479  169.1440 C.3      21        0    0.0000
    290 H         201.5561  165.0687  171.9812 H        21        0    0.0000
    291 H         202.5648  166.2988  171.2189 H        21        0    0.0000
    292 H         202.9326  163.5750  170.8967 H        21        0    0.0000
    293 H         203.4247  164.7453  169.6737 H        21        0    0.0000
    294 H         201.8114  164.1573  168.2162 H        21        0    0.0000
    295 H         201.2738  161.9132  168.2132 H        21        0    0.0000
    296 H         200.5397  161.9887  169.8112 H        21        0    0.0000
    297 H         199.5324  164.6430  168.7548 H        21        0    0.0000
    298 H         199.6779  163.9630  170.3792 H        21        0    0.0000
    299 H         199.8790  166.2723  170.8695 H        21        0    0.0000
    300 H         201.4035  166.4919  168.2340 H        21        0    0.0000
    301 H         201.7824  167.6053  169.5399 H        21        0    0.0000
    302 C         196.1256  167.6746  168.3743 C.3      22        0    0.0000
    303 C         197.4837  167.3827  167.7379 C.3      22        0    0.0000
    304 C         198.4495  167.0560  168.8900 C.3      22        0    0.0000
    305 C         199.7703  167.8293  168.7810 C.3      22        0    0.0000
    306 C         197.6508  167.3580  170.1674 C.3      22        0    0.0000
    307 C         196.1879  167.0937  169.7892 C.3      22        0    0.0000
    308 C         195.7890  165.6068  169.8136 C.3      22        0    0.0000
    309 H         195.9890  168.7618  168.4359 H        22        0    0.0000
    310 H         195.2979  167.2781  167.7778 H        22        0    0.0000
    311 H         197.8134  168.2350  167.1337 H        22        0    0.0000
    312 H         197.4093  166.5205  167.0648 H        22        0    0.0000
    313 H         198.6620  165.9781  168.8562 H        22        0    0.0000
    314 H         199.7477  168.7148  169.4268 H        22        0    0.0000
    315 H         199.8946  168.1903  167.7530 H        22        0    0.0000
    316 H         197.9908  166.7562  171.0159 H        22        0    0.0000
    317 H         197.7642  168.4136  170.4468 H        22        0    0.0000
    318 H         195.5184  167.6585  170.4504 H        22        0    0.0000
    319 H         196.4133  165.0166  169.1343 H        22        0    0.0000
    320 H         194.7564  165.5044  169.4585 H        22        0    0.0000
    321 C         194.9677  161.8926  173.0558 C.3      23        0    0.0000
    322 C         196.0241  162.6224  172.2226 C.3      23        0    0.0000
    323 C         195.2646  163.5954  171.3032 C.3      23        0    0.0000
    324 C         195.8666  165.0048  171.2452 C.3      23        0    0.0000
    325 C         193.8321  163.5948  171.8466 C.3      23        0    0.0000
    326 C         193.6219  162.1731  172.3784 C.3      23        0    0.0000
    327 C         193.2874  161.1702  171.2579 C.3      23        0    0.0000
    328 H         195.1958  160.8276  173.1606 H        23        0    0.0000
    329 H         194.9576  162.3203  174.0665 H        23        0    0.0000
    330 H         196.7374  163.1290  172.8822 H        23        0    0.0000
    331 H         196.5939  161.9072  171.6179 H        23        0    0.0000
    332 H         195.2455  163.1689  170.2901 H        23        0    0.0000
    333 H         195.3176  165.6626  171.9296 H        23        0    0.0000
    334 H         196.9083  164.9905  171.5857 H        23        0    0.0000
    335 H         193.1024  163.8741  171.0796 H        23        0    0.0000
    336 H         193.7363  164.3120  172.6720 H        23        0    0.0000
    337 H         192.8140  162.1738  173.1211 H        23        0    0.0000
    338 H         194.1935  160.6874  170.8755 H        23        0    0.0000
    339 H         192.8312  161.7041  170.4158 H        23        0    0.0000
    340 C         189.4559  162.4565  172.6223 C.3      24        0    0.0000
    341 C         190.5701  162.0182  171.6821 C.3      24        0    0.0000
    342 C         190.9371  160.6281  172.2118 C.3      24        0    0.0000
    343 C         192.2868  160.0795  171.7388 C.3      24        0    0.0000
    344 C         190.7536  160.7146  173.7396 C.3      24        0    0.0000
    345 C         189.9767  162.0208  173.9958 C.3      24        0    0.0000
    346 C         188.9250  161.9564  175.1076 C.3      24        0    0.0000
    347 H         189.2799  163.5355  172.5726 H        24        0    0.0000
    348 H         188.5238  161.9470  172.3544 H        24        0    0.0000
    349 H         190.2369  161.9865  170.6401 H        24        0    0.0000
    350 H         191.4088  162.7197  171.7499 H        24        0    0.0000
    351 H         190.1696  159.9324  171.8403 H        24        0    0.0000
    352 H         192.7491  159.5129  172.5558 H        24        0    0.0000
    353 H         192.1183  159.3704  170.9196 H        24        0    0.0000
    354 H         191.7049  160.7421  174.2818 H        24        0    0.0000
    355 H         190.2211  159.8258  174.0952 H        24        0    0.0000
    356 H         190.7171  162.7723  174.3092 H        24        0    0.0000
    357 H         188.1231  162.6698  174.8835 H        24        0    0.0000
    358 H         188.4681  160.9597  175.1114 H        24        0    0.0000
    359 C         186.1796  162.7534  178.2925 C.3      25        0    0.0000
    360 C         187.0002  162.4378  177.0514 C.3      25        0    0.0000
    361 C         188.4164  162.8437  177.4645 C.3      25        0    0.0000
    362 C         189.4798  162.2582  176.5321 C.3      25        0    0.0000
    363 C         188.5178  162.3792  178.9290 C.3      25        0    0.0000
    364 C         187.0680  162.2648  179.4436 C.3      25        0    0.0000
    365 C         186.7986  162.9215  180.8034 C.3      25        0    0.0000
    366 H         185.2097  162.2461  178.2810 H        25        0    0.0000
    367 H         185.9930  163.8315  178.3436 H        25        0    0.0000
    368 H         186.9463  161.3664  176.8228 H        25        0    0.0000
    369 H         186.6492  162.9930  176.1761 H        25        0    0.0000
    370 H         188.4785  163.9416  177.4478 H        25        0    0.0000
    371 H         190.3306  162.9449  176.4504 H        25        0    0.0000
    372 H         189.8670  161.3274  176.9635 H        25        0    0.0000
    373 H         189.0005  161.3966  179.0011 H        25        0    0.0000
    374 H         189.1276  163.0755  179.5141 H        25        0    0.0000
    375 H         186.8649  161.1912  179.5727 H        25        0    0.0000
    376 H         185.7515  163.2441  180.8442 H        25        0    0.0000
    377 H         187.4099  163.8279  180.8881 H        25        0    0.0000
    378 C         185.2816  159.8331  184.4296 C.3      26        0    0.0000
    379 C         186.0022  159.9198  183.0820 C.3      26        0    0.0000
    380 C         185.8126  161.3601  182.5733 C.3      26        0    0.0000
    381 C         187.0915  162.0074  182.0277 C.3      26        0    0.0000
    382 C         185.2425  162.1181  183.7764 C.3      26        0    0.0000
    383 C         184.3953  161.0801  184.5202 C.3      26        0    0.0000
    384 C         183.0084  160.8851  183.8786 C.3      26        0    0.0000
    385 H         184.7331  158.8926  184.5385 H        26        0    0.0000
    386 H         186.0292  159.8641  185.2325 H        26        0    0.0000
    387 H         187.0562  159.6461  183.2023 H        26        0    0.0000
    388 H         185.5634  159.2124  182.3686 H        26        0    0.0000
    389 H         185.0480  161.3490  181.7834 H        26        0    0.0000
    390 H         187.5542  162.6161  182.8137 H        26        0    0.0000
    391 H         187.8216  161.2384  181.7503 H        26        0    0.0000
    392 H         184.6663  162.9977  183.4714 H        26        0    0.0000
    393 H         186.0541  162.4637  184.4297 H        26        0    0.0000
    394 H         184.2737  161.3862  185.5670 H        26        0    0.0000
    395 H         183.0750  160.2784  182.9687 H        26        0    0.0000
    396 H         182.6040  161.8603  183.5825 H        26        0    0.0000
    397 C         182.0033  160.2238  184.8657 C.3      27        0    0.0000
    398 C         180.5543  160.7017  184.6940 C.3      27        0    0.0000
    399 H         182.0311  159.1441  184.6703 H        27        0    0.0000
    400 H         182.3503  160.3648  185.8961 H        27        0    0.0000
    401 H         180.5156  161.7312  184.3191 H        27        0    0.0000
    402 H         180.0762  160.0723  183.9325 H        27        0    0.0000
    403 C         176.1447  161.7559  185.3330 C.3      28        0    0.0000
    404 C         177.4870  161.2710  184.8070 C.3      28        0    0.0000
    405 C         178.4304  161.4622  186.0013 C.3      28        0    0.0000
    406 C         179.6849  160.5794  185.9932 C.3      28        0    0.0000
    407 C         177.5432  161.3400  187.2573 C.3      28        0    0.0000
    408 C         176.1001  161.1733  186.7471 C.3      28        0    0.0000
    409 C         175.0328  161.8450  187.6146 C.3      28        0    0.0000
    410 H         176.1193  162.8522  185.3556 H        28        0    0.0000
    411 H         175.3121  161.4064  184.7149 H        28        0    0.0000
    412 H         177.4054  160.2201  184.5090 H        28        0    0.0000
    413 H         177.8137  161.8424  183.9325 H        28        0    0.0000
    414 H         178.7844  162.5033  185.9676 H        28        0    0.0000
    415 H         180.3076  160.8383  186.8578 H        28        0    0.0000
    416 H         179.3869  159.5323  186.1232 H        28        0    0.0000
    417 H         177.6486  162.2515  187.8588 H        28        0    0.0000
    418 H         177.8246  160.5007  187.9021 H        28        0    0.0000
    419 H         175.8858  160.0974  186.6696 H        28        0    0.0000
    420 H         175.0926  161.4723  188.6441 H        28        0    0.0000
    421 H         175.2274  162.9232  187.6586 H        28        0    0.0000
    422 C         170.4378  163.6407  187.7014 C.3      29        0    0.0000
    423 C         171.1308  162.4193  187.1139 C.3      29        0    0.0000
    424 C         172.5221  162.4754  187.7531 C.3      29        0    0.0000
    425 C         173.5939  161.6194  187.0713 C.3      29        0    0.0000
    426 C         172.8508  163.9760  187.8786 C.3      29        0    0.0000
    427 C         171.5240  164.7188  187.6270 C.3      29        0    0.0000
    428 C         171.2839  165.9553  188.4984 C.3      29        0    0.0000
    429 H         169.5445  163.9170  187.1327 H        29        0    0.0000
    430 H         170.1334  163.4329  188.7332 H        29        0    0.0000
    431 H         170.6028  161.4924  187.3588 H        29        0    0.0000
    432 H         171.1745  162.5078  186.0228 H        29        0    0.0000
    433 H         172.4182  162.0880  188.7779 H        29        0    0.0000
    434 H         173.3348  160.5605  187.1891 H        29        0    0.0000
    435 H         173.5873  161.8274  185.9947 H        29        0    0.0000
    436 H         173.6005  164.3097  187.1531 H        29        0    0.0000
    437 H         173.2699  164.1772  188.8704 H        29        0    0.0000
    438 H         171.5523  165.0716  186.5850 H        29        0    0.0000
    439 H         172.1756  166.5927  188.4689 H        29        0    0.0000
    440 H         170.4630  166.5421  188.0696 H        29        0    0.0000
    441 C         168.3607  168.3257  190.5415 C.3      30        0    0.0000
    442 C         169.3521  167.5843  189.6576 C.3      30        0    0.0000
    443 C         170.1552  166.7565  190.6630 C.3      30        0    0.0000
    444 C         170.9466  165.6350  189.9856 C.3      30        0    0.0000
    445 C         169.0956  166.2780  191.6724 C.3      30        0    0.0000
    446 C         167.9123  167.2599  191.5495 C.3      30        0    0.0000
    447 C         167.3661  167.8018  192.8765 C.3      30        0    0.0000
    448 H         167.5191  168.7243  189.9664 H        30        0    0.0000
    449 H         168.8632  169.1688  191.0279 H        30        0    0.0000
    450 H         168.8196  166.9385  188.9488 H        30        0    0.0000
    451 H         169.9852  168.2707  189.0871 H        30        0    0.0000
    452 H         170.8490  167.4298  191.1872 H        30        0    0.0000
    453 H         171.8768  165.4440  190.5339 H        30        0    0.0000
    454 H         170.3636  164.7070  190.0223 H        30        0    0.0000
    455 H         168.7463  165.2662  191.4314 H        30        0    0.0000
    456 H         169.5156  166.2358  192.6829 H        30        0    0.0000
    457 H         167.0885  166.7011  191.0808 H        30        0    0.0000
    458 H         166.9414  168.7986  192.7087 H        30        0    0.0000
    459 H         168.1988  167.9293  193.5784 H        30        0    0.0000
    460 C         162.6549  167.1101  192.4862 C.3      31        0    0.0000
    461 C         164.1262  167.0021  192.1158 C.3      31        0    0.0000
    462 C         164.8511  167.4216  193.4009 C.3      31        0    0.0000
    463 C         166.2869  166.9008  193.5430 C.3      31        0    0.0000
    464 C         163.8970  167.0557  194.5565 C.3      31        0    0.0000
    465 C         162.6125  166.5204  193.8974 C.3      31        0    0.0000
    466 C         161.3188  166.8772  194.6335 C.3      31        0    0.0000
    467 H         162.3395  168.1606  192.4866 H        31        0    0.0000
    468 H         162.0154  166.5606  191.7887 H        31        0    0.0000
    469 H         164.3568  165.9703  191.8294 H        31        0    0.0000
    470 H         164.3835  167.6492  191.2714 H        31        0    0.0000
    471 H         164.9201  168.5196  193.3869 H        31        0    0.0000
    472 H         166.5245  166.7987  194.6086 H        31        0    0.0000
    473 H         166.3478  165.8953  193.1099 H        31        0    0.0000
    474 H         163.6931  167.9559  195.1495 H        31        0    0.0000
    475 H         164.3179  166.3131  195.2424 H        31        0    0.0000
    476 H         162.6987  165.4270  193.8164 H        31        0    0.0000
    477 H         160.5453  166.1290  194.4231 H        31        0    0.0000
    478 H         161.4977  166.8492  195.7149 H        31        0    0.0000
    479 C         160.7850  168.2866  194.2524 C.3      32        0    0.0000
    480 C         159.4377  168.6392  194.8986 C.3      32        0    0.0000
    481 H         161.5304  169.0126  194.6014 H        32        0    0.0000
    482 H         160.7413  168.3824  193.1611 H        32        0    0.0000
    483 H         158.5990  168.2431  194.3139 H        32        0    0.0000
    484 H         159.3932  168.1516  195.8809 H        32        0    0.0000
    485 C         157.2834  170.3642  198.2503 C.3      33        0    0.0000
    486 C         158.1446  171.1304  197.2475 C.3      33        0    0.0000
    487 C         157.9157  170.4721  195.8759 C.3      33        0    0.0000
    488 C         159.2316  170.1739  195.1453 C.3      33        0    0.0000
    489 C         157.0702  169.2250  196.1770 C.3      33        0    0.0000
    490 C         156.2523  169.5943  197.4210 C.3      33        0    0.0000
    491 C         155.0055  170.4479  197.1256 C.3      33        0    0.0000
    492 H         157.9182  169.6502  198.7906 H        33        0    0.0000
    493 H         156.8337  171.0261  198.9970 H        33        0    0.0000
    494 H         159.1953  171.1164  197.5573 H        33        0    0.0000
    495 H         157.8348  172.1814  197.2072 H        33        0    0.0000
    496 H         157.3164  171.1630  195.2663 H        33        0    0.0000
    497 H         160.0807  170.5739  195.7114 H        33        0    0.0000
    498 H         159.2301  170.6837  194.1743 H        33        0    0.0000
    499 H         156.4484  168.9352  195.3244 H        33        0    0.0000
    500 H         157.7199  168.3726  196.4146 H        33        0    0.0000
    501 H         155.9497  168.6863  197.9580 H        33        0    0.0000
    502 H         155.1052  170.9810  196.1740 H        33        0    0.0000
    503 H         154.8996  171.2135  197.9038 H        33        0    0.0000
    504 C         152.0455  168.6869  200.3740 C.3      34        0    0.0000
    505 C         152.4843  169.7065  199.3341 C.3      34        0    0.0000
    506 C         153.4398  168.9037  198.4489 C.3      34        0    0.0000
    507 C         153.7048  169.5959  197.1096 C.3      34        0    0.0000
    508 C         152.7647  167.5244  198.3384 C.3      34        0    0.0000
    509 C         151.8196  167.4114  199.5524 C.3      34        0    0.0000
    510 C         151.9148  166.0989  200.3406 C.3      34        0    0.0000
    511 H         151.1374  169.0021  200.8975 H        34        0    0.0000
    512 H         152.8367  168.5623  201.1212 H        34        0    0.0000
    513 H         151.6187  170.0618  198.7618 H        34        0    0.0000
    514 H         152.9725  170.5730  199.7906 H        34        0    0.0000
    515 H         154.3885  168.7789  198.9911 H        34        0    0.0000
    516 H         153.7698  168.8527  196.3061 H        34        0    0.0000
    517 H         152.8588  170.2496  196.8660 H        34        0    0.0000
    518 H         152.1738  167.4445  197.4175 H        34        0    0.0000
    519 H         153.5157  166.7281  198.3031 H        34        0    0.0000
    520 H         150.7941  167.4613  199.1571 H        34        0    0.0000
    521 H         152.6834  166.2015  201.1158 H        34        0    0.0000
    522 H         152.2530  165.3028  199.6665 H        34        0    0.0000
    523 C         148.2070  168.5176  200.3951 C.3      35        0    0.0000
    524 C         149.5907  167.8761  200.2623 C.3      35        0    0.0000
    525 C         149.6956  166.8412  201.3902 C.3      35        0    0.0000
    526 C         150.5826  165.6527  201.0089 C.3      35        0    0.0000
    527 C         148.2326  166.4820  201.6704 C.3      35        0    0.0000
    528 C         147.5334  167.8435  201.5977 C.3      35        0    0.0000
    529 C         146.0113  167.7720  201.4477 C.3      35        0    0.0000
    530 H         148.2803  169.6005  200.5421 H        35        0    0.0000
    531 H         147.6381  168.3528  199.4722 H        35        0    0.0000
    532 H         150.3874  168.6237  200.3399 H        35        0    0.0000
    533 H         149.6817  167.4055  199.2761 H        35        0    0.0000
    534 H         150.1099  167.3420  202.2773 H        35        0    0.0000
    535 H         150.0404  165.0064  200.3084 H        35        0    0.0000
    536 H         150.8040  165.0443  201.8936 H        35        0    0.0000
    537 H         148.1078  166.0099  202.6501 H        35        0    0.0000
    538 H         147.8423  165.7986  200.9057 H        35        0    0.0000
    539 H         147.7894  168.4178  202.5000 H        35        0    0.0000
    540 H         145.7434  167.1737  200.5690 H        35        0    0.0000
    541 H         145.6167  168.7806  201.2756 H        35        0    0.0000
    542 C         146.3818  163.5391  202.9590 C.3      36        0    0.0000
    543 C         146.1884  164.8065  202.1382 C.3      36        0    0.0000
    544 C         145.9424  165.8734  203.2100 C.3      36        0    0.0000
    545 C         145.3206  167.1797  202.7067 C.3      36        0    0.0000
    546 C         145.1625  165.1536  204.3276 C.3      36        0    0.0000
    547 C         145.2820  163.6481  204.0202 C.3      36        0    0.0000
    548 C         145.4522  162.7367  205.2395 C.3      36        0    0.0000
    549 H         146.2764  162.6367  202.3487 H        36        0    0.0000
    550 H         147.3835  163.5347  203.4026 H        36        0    0.0000
    551 H         147.0658  165.0342  201.5250 H        36        0    0.0000
    552 H         145.3282  164.6871  201.4703 H        36        0    0.0000
    553 H         146.9252  166.1366  203.6295 H        36        0    0.0000
    554 H         144.2617  167.0079  202.4795 H        36        0    0.0000
    555 H         145.3535  167.9252  203.5100 H        36        0    0.0000
    556 H         144.1052  165.4379  204.3600 H        36        0    0.0000
    557 H         145.5849  165.4242  205.3013 H        36        0    0.0000
    558 H         144.3404  163.3490  203.5356 H        36        0    0.0000
    559 H         145.2226  161.7044  204.9496 H        36        0    0.0000
    560 H         146.5028  162.7496  205.5528 H        36        0    0.0000
    561 C         141.2812  164.7220  205.7811 C.3      37        0    0.0000
    562 C         142.5272  164.0659  205.1812 C.3      37        0    0.0000
    563 C         143.6848  164.3458  206.1562 C.3      37        0    0.0000
    564 C         144.5617  163.1243  206.4580 C.3      37        0    0.0000
    565 C         143.0018  164.8982  207.4114 C.3      37        0    0.0000
    566 C         141.7827  165.6617  206.8830 C.3      37        0    0.0000
    567 C         142.1487  167.0645  206.3620 C.3      37        0    0.0000
    568 H         140.6754  165.2198  205.0180 H        37        0    0.0000
    569 H         140.6537  163.9422  206.2316 H        37        0    0.0000
    570 H         142.3499  162.9958  205.0269 H        37        0    0.0000
    571 H         142.7530  164.5013  204.2007 H        37        0    0.0000
    572 H         144.3103  165.1428  205.7293 H        37        0    0.0000
    573 H         145.2153  163.3479  207.3095 H        37        0    0.0000
    574 H         143.9405  162.2698  206.7503 H        37        0    0.0000
    575 H         143.6754  165.5284  208.0012 H        37        0    0.0000
    576 H         142.6668  164.0761  208.0571 H        37        0    0.0000
    577 H         141.0319  165.7519  207.6782 H        37        0    0.0000
    578 H         142.4552  167.0287  205.3108 H        37        0    0.0000
    579 H         143.0028  167.4522  206.9299 H        37        0    0.0000
    580 C         137.2102  167.6111  206.6854 C.3      38        0    0.0000
    581 C         138.5368  167.8462  207.3913 C.3      38        0    0.0000
    582 C         139.5786  167.4399  206.3412 C.3      38        0    0.0000
    583 C         140.9677  168.0656  206.5201 C.3      38        0    0.0000
    584 C         138.9113  167.6900  204.9731 C.3      38        0    0.0000
    585 C         137.4723  168.1463  205.2761 C.3      38        0    0.0000
    586 C         136.4229  167.6646  204.2714 C.3      38        0    0.0000
    587 H         136.9756  166.5399  206.6647 H        38        0    0.0000
    588 H         136.3851  168.1332  207.1795 H        38        0    0.0000
    589 H         138.6212  168.9021  207.6700 H        38        0    0.0000
    590 H         138.6243  167.2508  208.3055 H        38        0    0.0000
    591 H         139.7156  166.3517  206.4290 H        38        0    0.0000
    592 H         141.0913  168.8725  205.7880 H        38        0    0.0000
    593 H         141.0265  168.5296  207.5118 H        38        0    0.0000
    594 H         138.9184  166.7565  204.3966 H        38        0    0.0000
    595 H         139.4353  168.4388  204.3700 H        38        0    0.0000
    596 H         137.4626  169.2453  205.3179 H        38        0    0.0000
    597 H         135.8916  166.7916  204.6687 H        38        0    0.0000
    598 H         135.6722  168.4506  204.1266 H        38        0    0.0000
    599 C         134.2101  166.8354  200.3980 C.3      39        0    0.0000
    600 C         134.7257  166.8280  201.8303 C.3      39        0    0.0000
    601 C         136.0928  167.5084  201.7049 C.3      39        0    0.0000
    602 C         137.0402  167.3039  202.8910 C.3      39        0    0.0000
    603 C         136.6408  167.0682  200.3333 C.3      39        0    0.0000
    604 C         135.4482  166.4387  199.5871 C.3      39        0    0.0000
    605 C         135.3752  166.7385  198.0868 C.3      39        0    0.0000
    606 H         133.3836  166.1320  200.2574 H        39        0    0.0000
    607 H         133.8516  167.8378  200.1390 H        39        0    0.0000
    608 H         134.0579  167.3688  202.5080 H        39        0    0.0000
    609 H         134.8102  165.7959  202.1878 H        39        0    0.0000
    610 H         135.9055  168.5907  201.6377 H        39        0    0.0000
    611 H         137.3652  166.2569  202.9133 H        39        0    0.0000
    612 H         137.9411  167.9101  202.7389 H        39        0    0.0000
    613 H         137.4505  166.3350  200.4137 H        39        0    0.0000
    614 H         137.0600  167.9352  199.8113 H        39        0    0.0000
    615 H         135.5559  165.3477  199.6828 H        39        0    0.0000
    616 H         134.3432  166.5994  197.7437 H        39        0    0.0000
    617 H         135.6233  167.7934  197.9196 H        39        0    0.0000
    618 C         134.7202  167.5670  194.3298 C.3      40        0    0.0000
    619 C         134.5672  166.5176  195.4336 C.3      40        0    0.0000
    620 C         135.9774  165.9713  195.7199 C.3      40        0    0.0000
    621 C         136.3168  165.8581  197.2113 C.3      40        0    0.0000
    622 C         136.9159  166.9292  194.9791 C.3      40        0    0.0000
    623 C         136.1223  167.3684  193.7439 C.3      40        0    0.0000
    624 C         136.1641  166.3203  192.6156 C.3      40        0    0.0000
    625 H         133.9182  167.4987  193.5888 H        40        0    0.0000
    626 H         134.6571  168.5657  194.7809 H        40        0    0.0000
    627 H         134.0977  166.9670  196.3155 H        40        0    0.0000
    628 H         133.9139  165.7037  195.0981 H        40        0    0.0000
    629 H         136.0644  164.9795  195.2534 H        40        0    0.0000
    630 H         136.2120  164.8139  197.5293 H        40        0    0.0000
    631 H         137.3606  166.1411  197.3890 H        40        0    0.0000
    632 H         137.8694  166.4548  194.7254 H        40        0    0.0000
    633 H         137.1371  167.8054  195.6023 H        40        0    0.0000
    634 H         136.5187  168.3216  193.3717 H        40        0    0.0000
    635 H         135.1828  166.2107  192.1409 H        40        0    0.0000
    636 H         136.4252  165.3423  193.0369 H        40        0    0.0000
    637 C         135.7384  170.0807  191.5237 C.3      41        0    0.0000
    638 C         135.5298  168.5984  191.2042 C.3      41        0    0.0000
    639 C         136.9154  168.0231  190.8603 C.3      41        0    0.0000
    640 C         137.2226  166.6793  191.5328 C.3      41        0    0.0000
    641 C         137.8990  169.1217  191.2757 C.3      41        0    0.0000
    642 C         137.1440  170.4311  191.0233 C.3      41        0    0.0000
    643 C         137.1721  170.8491  189.5408 C.3      41        0    0.0000
    644 H         134.9486  170.7049  191.0949 H        41        0    0.0000
    645 H         135.7000  170.2162  192.6122 H        41        0    0.0000
    646 H         135.0589  168.0942  192.0553 H        41        0    0.0000
    647 H         134.8562  168.4841  190.3469 H        41        0    0.0000
    648 H         136.9782  167.9036  189.7692 H        41        0    0.0000
    649 H         137.2277  165.8868  190.7749 H        41        0    0.0000
    650 H         138.2222  166.6957  191.9821 H        41        0    0.0000
    651 H         138.8409  169.0602  190.7209 H        41        0    0.0000
    652 H         138.1374  169.0371  192.3439 H        41        0    0.0000
    653 H         137.5787  171.2307  191.6365 H        41        0    0.0000
    654 H         136.8234  171.8799  189.4136 H        41        0    0.0000
    655 H         136.4895  170.2090  188.9693 H        41        0    0.0000
    656 C         138.6149  168.9905  185.6839 C.3      42        0    0.0000
    657 C         137.7530  169.6084  186.7837 C.3      42        0    0.0000
    658 C         138.5741  170.7572  187.3945 C.3      42        0    0.0000
    659 C         138.5956  170.7078  188.9279 C.3      42        0    0.0000
    660 C         139.9610  170.6351  186.7446 C.3      42        0    0.0000
    661 C         139.6962  170.0254  185.3622 C.3      42        0    0.0000
    662 C         139.2193  171.0395  184.3064 C.3      42        0    0.0000
    663 H         139.0900  168.0813  186.0741 H        42        0    0.0000
    664 H         138.0217  168.6967  184.8123 H        42        0    0.0000
    665 H         137.4702  168.8480  187.5200 H        42        0    0.0000
    666 H         136.8239  170.0061  186.3586 H        42        0    0.0000
    667 H         138.1188  171.7047  187.0733 H        42        0    0.0000
    668 H         139.2481  171.4939  189.3252 H        42        0    0.0000
    669 H         139.0193  169.7501  189.2533 H        42        0    0.0000
    670 H         140.4783  171.5983  186.6975 H        42        0    0.0000
    671 H         140.5940  169.9502  187.3237 H        42        0    0.0000
    672 H         140.5966  169.5170  184.9943 H        42        0    0.0000
    673 H         138.7705  171.9212  184.7765 H        42        0    0.0000
    674 H         138.4359  170.5793  183.6921 H        42        0    0.0000
    675 C         140.3714  171.4845  183.3618 C.3      43        0    0.0000
    676 C         139.9017  172.2864  182.1396 C.3      43        0    0.0000
    677 H         141.0371  172.1253  183.9541 H        43        0    0.0000
    678 H         140.9621  170.6107  183.0626 H        43        0    0.0000
    679 H         139.6897  171.6287  181.2885 H        43        0    0.0000
    680 H         138.9557  172.7789  182.3987 H        43        0    0.0000
    681 C         139.2889  174.9519  178.6157 C.3      44        0    0.0000
    682 C         139.3607  173.8433  179.6565 C.3      44        0    0.0000
    683 C         140.3002  174.4293  180.7156 C.3      44        0    0.0000
    684 C         140.8949  173.4170  181.6993 C.3      44        0    0.0000
    685 C         141.3236  175.2715  179.9289 C.3      44        0    0.0000
    686 C         140.7458  175.4137  178.5072 C.3      44        0    0.0000
    687 C         140.9554  176.7777  177.8426 C.3      44        0    0.0000
    688 H         138.8999  174.5898  177.6590 H        44        0    0.0000
    689 H         138.6287  175.7507  178.9710 H        44        0    0.0000
    690 H         138.3752  173.6043  180.0680 H        44        0    0.0000
    691 H         139.7689  172.9342  179.2012 H        44        0    0.0000
    692 H         139.7047  175.1346  181.3149 H        44        0    0.0000
    693 H         141.7782  172.9526  181.2449 H        44        0    0.0000
    694 H         141.2430  173.9479  182.5933 H        44        0    0.0000
    695 H         142.3116  174.8016  179.8772 H        44        0    0.0000
    696 H         141.4659  176.2355  180.4290 H        44        0    0.0000
    697 H         141.2680  174.6765  177.8788 H        44        0    0.0000
    698 H         140.6696  176.7090  176.7863 H        44        0    0.0000
    699 H         140.2811  177.5088  178.3043 H        44        0    0.0000
    700 C         144.8394  174.4476  177.5870 C.3      45        0    0.0000
    701 C         143.4193  175.0146  177.5113 C.3      45        0    0.0000
    702 C         143.4001  176.2506  178.4201 C.3      45        0    0.0000
    703 C         142.4148  177.3164  177.9324 C.3      45        0    0.0000
    704 C         144.8664  176.6954  178.4342 C.3      45        0    0.0000
    705 C         145.6190  175.3647  178.5384 C.3      45        0    0.0000
    706 C         147.1062  175.4433  178.1826 C.3      45        0    0.0000
    707 H         144.8389  173.4142  177.9501 H        45        0    0.0000
    708 H         145.2831  174.4394  176.5842 H        45        0    0.0000
    709 H         142.6764  174.2776  177.8349 H        45        0    0.0000
    710 H         143.1858  175.2767  176.4724 H        45        0    0.0000
    711 H         143.1221  175.9265  179.4336 H        45        0    0.0000
    712 H         142.7200  177.6637  176.9380 H        45        0    0.0000
    713 H         142.4412  178.1900  178.5941 H        45        0    0.0000
    714 H         145.0852  177.3563  179.2789 H        45        0    0.0000
    715 H         145.1261  177.2221  177.5074 H        45        0    0.0000
    716 H         145.5036  174.9756  179.5606 H        45        0    0.0000
    717 H         147.3554  174.6940  177.4222 H        45        0    0.0000
    718 H         147.7040  175.2038  179.0702 H        45        0    0.0000
    719 C         145.0474  178.5862  175.3860 C.3      46        0    0.0000
    720 C         145.3227  177.6612  176.5617 C.3      46        0    0.0000
    721 C         146.8035  177.2982  176.3931 C.3      46        0    0.0000
    722 C         147.5187  176.8522  177.6748 C.3      46        0    0.0000
    723 C         147.4450  178.4935  175.6588 C.3      46        0    0.0000
    724 C         146.2962  179.4694  175.3451 C.3      46        0    0.0000
    725 C         146.4335  180.2133  174.0144 C.3      46        0    0.0000
    726 H         144.9432  178.0049  174.4618 H        46        0    0.0000
    727 H         144.1326  179.1694  175.5291 H        46        0    0.0000
    728 H         145.1322  178.1944  177.4994 H        46        0    0.0000
    729 H         144.6800  176.7755  176.5439 H        46        0    0.0000
    730 H         146.8480  176.4443  175.7008 H        46        0    0.0000
    731 H         148.6010  176.8587  177.4988 H        46        0    0.0000
    732 H         147.3250  177.5853  178.4668 H        46        0    0.0000
    733 H         147.9218  178.1329  174.7389 H        46        0    0.0000
    734 H         148.2246  178.9902  176.2460 H        46        0    0.0000
    735 H         146.2302  180.1972  176.1669 H        46        0    0.0000
    736 H         147.0718  179.6450  173.3275 H        46        0    0.0000
    737 H         145.4486  180.2892  173.5385 H        46        0    0.0000
    738 C         146.1129  183.6951  171.1186 C.3      47        0    0.0000
    739 C         145.9539  183.3956  172.6027 C.3      47        0    0.0000
    740 C         147.1206  182.4437  172.8862 C.3      47        0    0.0000
    741 C         147.0153  181.6443  174.1885 C.3      47        0    0.0000
    742 C         147.2811  181.6053  171.6029 C.3      47        0    0.0000
    743 C         146.4422  182.3210  170.5262 C.3      47        0    0.0000
    744 C         147.0496  182.3398  169.1201 C.3      47        0    0.0000
    745 H         145.2015  184.1211  170.6876 H        47        0    0.0000
    746 H         146.9269  184.4133  170.9713 H        47        0    0.0000
    747 H         146.0070  184.3038  173.2110 H        47        0    0.0000
    748 H         144.9825  182.9220  172.7826 H        47        0    0.0000
    749 H         148.0249  183.0647  172.9730 H        47        0    0.0000
    750 H         148.0104  181.5671  174.6426 H        47        0    0.0000
    751 H         146.3872  182.1959  174.8979 H        47        0    0.0000
    752 H         146.9254  180.5759  171.7197 H        47        0    0.0000
    753 H         148.3423  181.5374  171.3404 H        47        0    0.0000
    754 H         145.4921  181.7711  170.4487 H        47        0    0.0000
    755 H         146.2442  182.2544  168.3810 H        47        0    0.0000
    756 H         147.5312  183.3101  168.9507 H        47        0    0.0000
    757 C         150.1388  182.6415  166.0088 C.3      48        0    0.0000
    758 C         148.9441  182.7383  166.9452 C.3      48        0    0.0000
    759 C         148.8143  181.3176  167.5088 C.3      48        0    0.0000
    760 C         148.0917  181.2113  168.8577 C.3      48        0    0.0000
    761 C         150.2370  180.7225  167.4714 C.3      48        0    0.0000
    762 C         151.1278  181.7853  166.8024 C.3      48        0    0.0000
    763 C         152.2425  181.2216  165.9178 C.3      48        0    0.0000
    764 H         149.8491  182.1474  165.0734 H        48        0    0.0000
    765 H         150.5480  183.6264  165.7636 H        48        0    0.0000
    766 H         149.1513  183.4760  167.7280 H        48        0    0.0000
    767 H         148.0375  183.0540  166.4195 H        48        0    0.0000
    768 H         148.2140  180.7404  166.7897 H        48        0    0.0000
    769 H         147.5809  180.2425  168.9122 H        48        0    0.0000
    770 H         148.8347  181.2204  169.6639 H        48        0    0.0000
    771 H         150.2201  179.7940  166.8871 H        48        0    0.0000
    772 H         150.6213  180.4652  168.4641 H        48        0    0.0000
    773 H         151.5679  182.4108  167.5927 H        48        0    0.0000
    774 H         152.4575  180.1830  166.1960 H        48        0    0.0000
    775 H         151.9038  181.2042  164.8751 H        48        0    0.0000
    776 C         152.8042  181.2907  162.8994 C.3      49        0    0.0000
    777 C         153.9461  180.8366  163.8126 C.3      49        0    0.0000
    778 C         154.3260  182.0473  164.6721 C.3      49        0    0.0000
    779 C         153.5513  182.0560  166.0034 C.3      49        0    0.0000
    780 C         153.9981  183.2196  163.7386 C.3      49        0    0.0000
    781 C         152.6832  182.8144  163.0676 C.3      49        0    0.0000
    782 C         152.4346  183.5796  161.7628 C.3      49        0    0.0000
    783 H         153.0196  180.9996  161.8650 H        49        0    0.0000
    784 H         151.8652  180.8029  163.1849 H        49        0    0.0000
    785 H         154.8038  180.5508  163.1905 H        49        0    0.0000
    786 H         153.6719  179.9567  164.4034 H        49        0    0.0000
    787 H         155.4023  182.0281  164.8867 H        49        0    0.0000
    788 H         153.2845  183.0889  166.2583 H        49        0    0.0000
    789 H         154.1702  181.6814  166.8257 H        49        0    0.0000
    790 H         154.7930  183.3197  162.9881 H        49        0    0.0000
    791 H         153.9128  184.1802  164.2553 H        49        0    0.0000
    792 H         151.8597  183.0213  163.7654 H        49        0    0.0000
    793 H         152.1532  184.6172  161.9769 H        49        0    0.0000
    794 H         151.5915  183.1250  161.2292 H        49        0    0.0000
    795 C         153.6824  183.5601  160.8339 C.3      50        0    0.0000
    796 C         153.3743  183.1624  159.3833 C.3      50        0    0.0000
    797 H         154.0891  184.5795  160.8284 H        50        0    0.0000
    798 H         154.4563  182.9164  161.2683 H        50        0    0.0000
    799 H         152.3550  182.7707  159.2851 H        50        0    0.0000
    800 H         153.4236  184.0674  158.7644 H        50        0    0.0000
    801 C         153.9930  181.9368  155.0109 C.3      51        0    0.0000
    802 C         153.7625  182.6799  156.3180 C.3      51        0    0.0000
    803 C         154.0053  181.6076  157.3876 C.3      51        0    0.0000
    804 C         154.3944  182.1401  158.7726 C.3      51        0    0.0000
    805 C         154.9993  180.6092  156.7592 C.3      51        0    0.0000
    806 C         155.2285  181.0865  155.3135 C.3      51        0    0.0000
    807 C         155.4205  179.9633  154.2914 C.3      51        0    0.0000
    808 H         153.1269  181.3067  154.7746 H        51        0    0.0000
    809 H         154.1571  182.6219  154.1736 H        51        0    0.0000
    810 H         154.4723  183.5105  156.3969 H        51        0    0.0000
    811 H         152.7521  183.0963  156.3784 H        51        0    0.0000
    812 H         153.0573  181.0652  157.5197 H        51        0    0.0000
    813 H         154.4989  181.2942  159.4624 H        51        0    0.0000
    814 H         155.3795  182.6172  158.7092 H        51        0    0.0000
    815 H         154.5576  179.6051  156.7803 H        51        0    0.0000
    816 H         155.9487  180.5492  157.3016 H        51        0    0.0000
    817 H         156.1098  181.7443  155.3051 H        51        0    0.0000
    818 H         154.9875  179.0297  154.6696 H        51        0    0.0000
    819 H         154.8766  180.2128  153.3725 H        51        0    0.0000
    820 C         159.8621  181.1596  154.1586 C.3      52        0    0.0000
    821 C         158.4456  181.7152  154.3292 C.3      52        0    0.0000
    822 C         157.5627  180.9795  153.3152 C.3      52        0    0.0000
    823 C         156.9158  179.7279  153.9379 C.3      52        0    0.0000
    824 C         158.5527  180.6854  152.1810 C.3      52        0    0.0000
    825 C         159.8423  180.2785  152.8984 C.3      52        0    0.0000
    826 C         161.0781  180.4231  152.0031 C.3      52        0    0.0000
    827 H         160.5769  181.9866  154.0798 H        52        0    0.0000
    828 H         160.1502  180.5638  155.0322 H        52        0    0.0000
    829 H         158.4550  182.7864  154.0911 H        52        0    0.0000
    830 H         158.0905  181.6197  155.3603 H        52        0    0.0000
    831 H         156.7701  181.6492  152.9574 H        52        0    0.0000
    832 H         157.4501  179.4669  154.8594 H        52        0    0.0000
    833 H         157.0018  178.8630  153.2715 H        52        0    0.0000
    834 H         158.7156  181.5993  151.5949 H        52        0    0.0000
    835 H         158.2089  179.9101  151.4897 H        52        0    0.0000
    836 H         159.7487  179.2291  153.2113 H        52        0    0.0000
    837 H         161.5463  179.4456  151.8387 H        52        0    0.0000
    838 H         161.8218  181.0511  152.5076 H        52        0    0.0000
    839 C         160.7268  181.0688  150.6319 C.3      53        0    0.0000
    840 C         161.8501  180.9701  149.5898 C.3      53        0    0.0000
    841 H         160.5321  182.1319  150.8230 H        53        0    0.0000
    842 H         159.7912  180.6422  150.2516 H        53        0    0.0000
    843 H         162.7176  181.5240  149.9708 H        53        0    0.0000
    844 H         162.1764  179.9326  149.4522 H        53        0    0.0000
    845 C         164.5686  181.4209  146.0307 C.3      54        0    0.0000
    846 C         163.6735  180.8728  147.1317 C.3      54        0    0.0000
    847 C         162.7236  182.0388  147.4131 C.3      54        0    0.0000
    848 C         161.4866  181.5985  148.1999 C.3      54        0    0.0000
    849 C         162.4269  182.6147  146.0164 C.3      54        0    0.0000
    850 C         163.5915  182.1638  145.1107 C.3      54        0    0.0000
    851 C         164.2160  183.2649  144.2444 C.3      54        0    0.0000
    852 H         165.1015  180.6238  145.5028 H        54        0    0.0000
    853 H         165.3166  182.0917  146.4670 H        54        0    0.0000
    854 H         163.1252  179.9933  146.7727 H        54        0    0.0000
    855 H         164.2456  180.5819  148.0180 H        54        0    0.0000
    856 H         163.2724  182.7990  147.9881 H        54        0    0.0000
    857 H         160.8131  182.4500  148.3535 H        54        0    0.0000
    858 H         160.9291  180.8581  147.6139 H        54        0    0.0000
    859 H         161.4872  182.2161  145.6142 H        54        0    0.0000
    860 H         162.3153  183.7031  146.0627 H        54        0    0.0000
    861 H         163.1772  181.4196  144.4143 H        54        0    0.0000
    862 H         164.8279  182.8011  143.4617 H        54        0    0.0000
    863 H         164.8970  183.8612  144.8633 H        54        0    0.0000
    864 C         165.1388  185.6613  140.6691 C.3      55        0    0.0000
    865 C         165.0920  184.7981  141.9206 C.3      55        0    0.0000
    866 C         163.8002  185.2453  142.6165 C.3      55        0    0.0000
    867 C         163.1848  184.2199  143.5772 C.3      55        0    0.0000
    868 C         162.8691  185.7391  141.4902 C.3      55        0    0.0000
    869 C         163.6862  185.6471  140.1885 C.3      55        0    0.0000
    870 C         163.4028  186.7584  139.1748 C.3      55        0    0.0000
    871 H         165.4623  186.6786  140.9214 H        55        0    0.0000
    872 H         165.8268  185.2590  139.9194 H        55        0    0.0000
    873 H         165.0629  183.7409  141.6352 H        55        0    0.0000
    874 H         165.9714  184.9495  142.5544 H        55        0    0.0000
    875 H         164.0517  186.1270  143.2246 H        55        0    0.0000
    876 H         162.6395  184.7531  144.3650 H        55        0    0.0000
    877 H         162.4451  183.6195  143.0345 H        55        0    0.0000
    878 H         162.5727  186.7743  141.7003 H        55        0    0.0000
    879 H         161.9460  185.1555  141.4091 H        55        0    0.0000
    880 H         163.4861  184.6695  139.7262 H        55        0    0.0000
    881 H         162.3749  186.6771  138.8019 H        55        0    0.0000
    882 H         163.4805  187.7320  139.6734 H        55        0    0.0000
    883 C         164.3873  186.7338  137.9720 C.3      56        0    0.0000
    884 C         163.7955  187.2922  136.6699 C.3      56        0    0.0000
    885 H         164.6534  185.6827  137.8018 H        56        0    0.0000
    886 H         165.3147  187.2519  138.2431 H        56        0    0.0000
    887 H         163.3062  188.2472  136.9004 H        56        0    0.0000
    888 H         164.5806  187.5113  135.9367 H        56        0    0.0000
    889 C         161.9458  189.1997  133.7399 C.3      57        0    0.0000
    890 C         161.4163  188.2607  134.8265 C.3      57        0    0.0000
    891 C         162.1992  186.9426  134.6889 C.3      57        0    0.0000
    892 C         162.7065  186.3711  136.0187 C.3      57        0    0.0000
    893 C         163.3412  187.2756  133.7235 C.3      57        0    0.0000
    894 C         162.7504  188.3233  132.7738 C.3      57        0    0.0000
    895 C         161.8857  187.6913  131.6666 C.3      57        0    0.0000
    896 H         161.1397  189.7619  133.2590 H        57        0    0.0000
    897 H         162.6173  189.9336  134.2039 H        57        0    0.0000
    898 H         161.5333  188.7243  135.8122 H        57        0    0.0000
    899 H         160.3457  188.0745  134.6812 H        57        0    0.0000
    900 H         161.5466  186.2029  134.2034 H        57        0    0.0000
    901 H         161.8667  186.2774  136.7176 H        57        0    0.0000
    902 H         163.1121  185.3634  135.8725 H        57        0    0.0000
    903 H         163.7085  186.3867  133.2005 H        57        0    0.0000
    904 H         164.1875  187.7125  134.2692 H        57        0    0.0000
    905 H         163.5613  188.9046  132.3169 H        57        0    0.0000
    906 H         160.9766  188.2772  131.4916 H        57        0    0.0000
    907 H         161.5646  186.6914  131.9818 H        57        0    0.0000
    908 C         162.6714  187.5489  130.3308 C.3      58        0    0.0000
    909 C         161.9399  188.1288  129.1118 C.3      58        0    0.0000
    910 H         163.6126  188.0993  130.4566 H        58        0    0.0000
    911 H         162.9416  186.4984  130.1713 H        58        0    0.0000
    912 H         161.3147  187.3716  128.6243 H        58        0    0.0000
    913 H         161.2614  188.9160  129.4647 H        58        0    0.0000
    914 C         166.0069  189.1501  129.0197 C.3      59        0    0.0000
    915 C         164.6819  189.4345  129.7321 C.3      59        0    0.0000
    916 C         163.7106  189.9437  128.6615 C.3      59        0    0.0000
    917 C         162.8896  188.7906  128.0542 C.3      59        0    0.0000
    918 C         164.6566  190.6388  127.6741 C.3      59        0    0.0000
    919 C         165.8712  189.7106  127.5941 C.3      59        0    0.0000
    920 C         167.1209  190.4291  127.0727 C.3      59        0    0.0000
    921 H         166.8318  189.6119  129.5742 H        59        0    0.0000
    922 H         166.2024  188.0722  128.9853 H        59        0    0.0000
    923 H         164.8440  190.2227  130.4784 H        59        0    0.0000
    924 H         164.3102  188.5563  130.2699 H        59        0    0.0000
    925 H         163.0228  190.6770  129.1019 H        59        0    0.0000
    926 H         163.5739  188.0208  127.6772 H        59        0    0.0000
    927 H         162.3000  189.1314  127.1964 H        59        0    0.0000
    928 H         164.9507  191.6159  128.0793 H        59        0    0.0000
    929 H         164.2114  190.8131  126.6900 H        59        0    0.0000
    930 H         165.6285  188.8795  126.9171 H        59        0    0.0000
    931 H         167.5933  189.8429  126.2760 H        59        0    0.0000
    932 H         167.8554  190.5157  127.8821 H        59        0    0.0000
    933 C         163.6100  193.0924  128.1884 C.3      60        0    0.0000
    934 C         164.7673  192.1064  128.1436 C.3      60        0    0.0000
    935 C         165.3259  192.2735  126.7248 C.3      60        0    0.0000
    936 C         166.7904  191.8543  126.5437 C.3      60        0    0.0000
    937 C         164.9971  193.7238  126.3152 C.3      60        0    0.0000
    938 C         164.1784  194.3206  127.4745 C.3      60        0    0.0000
    939 C         163.0813  195.2986  127.0467 C.3      60        0    0.0000
    940 H         162.7446  192.6869  127.6501 H        60        0    0.0000
    941 H         163.3016  193.3158  129.2143 H        60        0    0.0000
    942 H         165.5030  192.3704  128.9110 H        60        0    0.0000
    943 H         164.4376  191.0804  128.3350 H        60        0    0.0000
    944 H         164.7334  191.6199  126.0673 H        60        0    0.0000
    945 H         167.0444  191.9007  125.4780 H        60        0    0.0000
    946 H         167.4362  192.5799  127.0523 H        60        0    0.0000
    947 H         164.4153  193.7088  125.3851 H        60        0    0.0000
    948 H         165.8894  194.3282  126.1209 H        60        0    0.0000
    949 H         164.8734  194.8265  128.1605 H        60        0    0.0000
    950 H         162.1981  194.7485  126.7009 H        60        0    0.0000
    951 H         162.7642  195.8894  127.9142 H        60        0    0.0000
    952 C         166.5056  194.6043  124.2752 C.3      61        0    0.0000
    953 C         165.3732  194.6020  125.3055 C.3      61        0    0.0000
    954 C         165.0267  196.0735  125.5678 C.3      61        0    0.0000
    955 C         163.5511  196.2690  125.9268 C.3      61        0    0.0000
    956 C         165.4675  196.7706  124.2764 C.3      61        0    0.0000
    957 C         166.7962  196.0770  123.9580 C.3      61        0    0.0000
    958 C         167.2922  196.2764  122.5231 C.3      61        0    0.0000
    959 H         167.3990  194.1020  124.6614 H        61        0    0.0000
    960 H         166.1861  194.0565  123.3805 H        61        0    0.0000
    961 H         165.6746  194.0986  126.2304 H        61        0    0.0000
    962 H         164.5138  194.0532  124.9021 H        61        0    0.0000
    963 H         165.6586  196.4324  126.3934 H        61        0    0.0000
    964 H         162.9359  196.0968  125.0355 H        61        0    0.0000
    965 H         163.3700  197.3036  126.2408 H        61        0    0.0000
    966 H         165.5923  197.8491  124.4159 H        61        0    0.0000
    967 H         164.7374  196.6086  123.4736 H        61        0    0.0000
    968 H         167.5577  196.4361  124.6656 H        61        0    0.0000
    969 H         166.8264  197.1642  122.0797 H        61        0    0.0000
    970 H         166.9851  195.4196  121.9116 H        61        0    0.0000
    971 C         168.8379  196.4100  122.4454 C.3      62        0    0.0000
    972 C         169.3338  197.2262  121.2432 C.3      62        0    0.0000
    973 H         169.1579  196.9237  123.3610 H        62        0    0.0000
    974 H         169.2963  195.4144  122.4681 H        62        0    0.0000
    975 H         169.0161  196.7746  120.2961 H        62        0    0.0000
    976 H         168.8673  198.2186  121.2897 H        62        0    0.0000
    977 C         171.3648  195.7243  118.0243 C.3      63        0    0.0000
    978 C         170.5155  196.7241  118.8076 C.3      63        0    0.0000
    979 C         171.4597  197.4204  119.8029 C.3      63        0    0.0000
    980 C         170.8848  197.4556  121.2251 C.3      63        0    0.0000
    981 C         172.7870  196.6559  119.6830 C.3      63        0    0.0000
    982 C         172.8204  196.1488  118.2356 C.3      63        0    0.0000
    983 C         173.2615  197.2060  117.2069 C.3      63        0    0.0000
    984 H         171.2154  194.7231  118.4482 H        63        0    0.0000
    985 H         171.0752  195.6754  116.9699 H        63        0    0.0000
    986 H         169.6798  196.2134  119.2984 H        63        0    0.0000
    987 H         170.0836  197.4685  118.1283 H        63        0    0.0000
    988 H         171.6161  198.4511  119.4545 H        63        0    0.0000
    989 H         171.1223  198.4105  121.7084 H        63        0    0.0000
    990 H         171.3582  196.6702  121.8265 H        63        0    0.0000
    991 H         173.6465  197.2834  119.9383 H        63        0    0.0000
    992 H         172.7941  195.7957  120.3649 H        63        0    0.0000
    993 H         173.4761  195.2723  118.1570 H        63        0    0.0000
    994 H         174.2352  197.6336  117.4691 H        63        0    0.0000
    995 H         172.5438  198.0354  117.2115 H        63        0    0.0000
    996 C         174.4015  199.9983  114.4598 C.3      64        0    0.0000
    997 C         173.3037  198.9977  114.8304 C.3      64        0    0.0000
    998 C         173.9500  197.6074  114.7700 C.3      64        0    0.0000
    999 C         173.3193  196.6286  115.7643 C.3      64        0    0.0000
   1000 C         175.4333  197.9019  115.0175 C.3      64        0    0.0000
   1001 C         175.6653  199.1710  114.1908 C.3      64        0    0.0000
   1002 C         176.9459  199.9345  114.5398 C.3      64        0    0.0000
   1003 H         174.1241  200.5890  113.5801 H        64        0    0.0000
   1004 H         174.5504  200.7005  115.2888 H        64        0    0.0000
   1005 H         172.4525  199.0652  114.1445 H        64        0    0.0000
   1006 H         172.9291  199.2227  115.8362 H        64        0    0.0000
   1007 H         173.8352  197.2204  113.7470 H        64        0    0.0000
   1008 H         173.9064  195.7026  115.7826 H        64        0    0.0000
   1009 H         172.3084  196.3555  115.4398 H        64        0    0.0000
   1010 H         176.0742  197.0773  114.6895 H        64        0    0.0000
   1011 H         175.6250  198.0858  116.0820 H        64        0    0.0000
   1012 H         175.6762  198.8986  113.1254 H        64        0    0.0000
   1013 H         177.6975  199.2494  114.9491 H        64        0    0.0000
   1014 H         176.7271  200.6689  115.3241 H        64        0    0.0000
   1015 C         177.5405  200.6823  113.3149 C.3      65        0    0.0000
   1016 C         177.1378  202.1615  113.2314 C.3      65        0    0.0000
   1017 H         177.1606  200.1749  112.4190 H        65        0    0.0000
   1018 H         178.6304  200.5643  113.3035 H        65        0    0.0000
   1019 H         176.9173  202.5123  114.2477 H        65        0    0.0000
   1020 H         177.9635  202.7793  112.8590 H        65        0    0.0000
   1021 C         175.0532  200.6160  109.2323 C.3      66        0    0.0000
   1022 C         175.8892  200.6354  110.5143 C.3      66        0    0.0000
   1023 C         176.0861  202.1153  110.8890 C.3      66        0    0.0000
   1024 C         175.8523  202.4244  112.3729 C.3      66        0    0.0000
   1025 C         175.1171  202.8727  109.9755 C.3      66        0    0.0000
   1026 C         175.0785  202.0472  108.6850 C.3      66        0    0.0000
   1027 C         176.2886  202.3254  107.7732 C.3      66        0    0.0000
   1028 H         175.4134  199.8653  108.5225 H        66        0    0.0000
   1029 H         174.0203  200.3470  109.4883 H        66        0    0.0000
   1030 H         175.3850  200.0610  111.2993 H        66        0    0.0000
   1031 H         176.8631  200.1625  110.3419 H        66        0    0.0000
   1032 H         177.1105  202.4067  110.6163 H        66        0    0.0000
   1033 H         175.5690  203.4778  112.4841 H        66        0    0.0000
   1034 H         175.0185  201.8285  112.7614 H        66        0    0.0000
   1035 H         175.4342  203.9073  109.8092 H        66        0    0.0000
   1036 H         174.1145  202.9010  110.4218 H        66        0    0.0000
   1037 H         174.1518  202.2627  108.1380 H        66        0    0.0000
   1038 H         176.4000  201.5435  107.0139 H        66        0    0.0000
   1039 H         177.2059  202.3192  108.3739 H        66        0    0.0000
   1040 C         179.4290  204.9753  105.9311 C.3      67        0    0.0000
   1041 C         178.6637  203.7802  106.4974 C.3      67        0    0.0000
   1042 C         177.2242  203.8857  105.9646 C.3      67        0    0.0000
   1043 C         176.1778  203.7109  107.0731 C.3      67        0    0.0000
   1044 C         177.1672  205.2496  105.2594 C.3      67        0    0.0000
   1045 C         178.5956  205.4928  104.7558 C.3      67        0    0.0000
   1046 C         178.9368  204.7574  103.4469 C.3      67        0    0.0000
   1047 H         179.4902  205.7547  106.7014 H        67        0    0.0000
   1048 H         180.4549  204.7133  105.6542 H        67        0    0.0000
   1049 H         178.7143  203.7780  107.5917 H        67        0    0.0000
   1050 H         179.1156  202.8428  106.1523 H        67        0    0.0000
   1051 H         177.0844  203.0962  105.2127 H        67        0    0.0000
   1052 H         175.1677  203.8394  106.6671 H        67        0    0.0000
   1053 H         176.3170  204.4931  107.8290 H        67        0    0.0000
   1054 H         176.4208  205.2670  104.4593 H        67        0    0.0000
   1055 H         176.8999  206.0377  105.9753 H        67        0    0.0000
   1056 H         178.7719  206.5679  104.6230 H        67        0    0.0000
   1057 H         178.2877  203.8877  103.2989 H        67        0    0.0000
   1058 H         179.9634  204.3758  103.5045 H        67        0    0.0000
   1059 C         178.8409  205.6936  102.2091 C.3      68        0    0.0000
   1060 C         180.0661  205.6342  101.2856 C.3      68        0    0.0000
   1061 H         177.9646  205.3690  101.6335 H        68        0    0.0000
   1062 H         178.6379  206.7199  102.5369 H        68        0    0.0000
   1063 H         180.8626  205.0179  101.7188 H        68        0    0.0000
   1064 H         179.7642  205.1451  100.3506 H        68        0    0.0000
   1065 C         182.4758  209.6888  101.5239 C.3      69        0    0.0000
   1066 C         182.3479  208.3448  102.2460 C.3      69        0    0.0000
   1067 C         180.8778  207.9265  102.1336 C.3      69        0    0.0000
   1068 C         180.6391  207.0409  100.8961 C.3      69        0    0.0000
   1069 C         180.1604  209.2817  102.0928 C.3      69        0    0.0000
   1070 C         181.0464  210.1537  101.1995 C.3      69        0    0.0000
   1071 C         180.8007  211.6510  101.4181 C.3      69        0    0.0000
   1072 H         183.0133  210.4010  102.1602 H        69        0    0.0000
   1073 H         183.0558  209.5766  100.6007 H        69        0    0.0000
   1074 H         182.6044  208.4860  103.3036 H        69        0    0.0000
   1075 H         183.0412  207.5980  101.8456 H        69        0    0.0000
   1076 H         180.5795  207.3708  103.0319 H        69        0    0.0000
   1077 H         181.5903  206.8913  100.3712 H        69        0    0.0000
   1078 H         179.9628  207.5265  100.1845 H        69        0    0.0000
   1079 H         180.1150  209.6994  103.1071 H        69        0    0.0000
   1080 H         179.1347  209.2231  101.7167 H        69        0    0.0000
   1081 H         180.8315  209.9060  100.1504 H        69        0    0.0000
   1082 H         181.3598  212.2406  100.6823 H        69        0    0.0000
   1083 H         181.1740  211.9404  102.4075 H        69        0    0.0000
   1084 C         177.6007  215.3421  100.6394 C.3      70        0    0.0000
   1085 C         177.5259  213.8901  101.0907 C.3      70        0    0.0000
   1086 C         178.9998  213.5109  101.2675 C.3      70        0    0.0000
   1087 C         179.2890  212.0080  101.3305 C.3      70        0    0.0000
   1088 C         179.7530  214.2870  100.1694 C.3      70        0    0.0000
   1089 C         178.7522  215.3268   99.6286 C.3      70        0    0.0000
   1090 C         179.3442  216.6973   99.2859 C.3      70        0    0.0000
   1091 H         176.6621  215.6789  100.1884 H        70        0    0.0000
   1092 H         177.8155  215.9862  101.4991 H        70        0    0.0000
   1093 H         176.9585  213.7796  102.0200 H        70        0    0.0000
   1094 H         177.0350  213.2875  100.3186 H        70        0    0.0000
   1095 H         179.3242  213.9321  102.2311 H        70        0    0.0000
   1096 H         178.7753  211.5807  102.1998 H        70        0    0.0000
   1097 H         178.8636  211.5237  100.4436 H        70        0    0.0000
   1098 H         180.0917  213.6442   99.3498 H        70        0    0.0000
   1099 H         180.6528  214.7437  100.5956 H        70        0    0.0000
   1100 H         178.3476  214.9178   98.6905 H        70        0    0.0000
   1101 H         179.2502  216.8681   98.2069 H        70        0    0.0000
   1102 H         178.7534  217.4770   99.7809 H        70        0    0.0000
   1103 C         180.8390  216.8687   99.6914 C.3      71        0    0.0000
   1104 C         181.2725  218.3304   99.8730 C.3      71        0    0.0000
   1105 H         181.4388  216.4337   98.8817 H        71        0    0.0000
   1106 H         181.0483  216.2760  100.5897 H        71        0    0.0000
   1107 H         181.3430  218.7905   98.8791 H        71        0    0.0000
   1108 H         180.5219  218.9026  100.4308 H        71        0    0.0000
   1109 C         182.6764  218.4990  100.5507 C.3      72        0    0.0000
   1110 C         183.3735  219.8264  100.2195 C.3      72        0    0.0000
   1111 H         183.3075  217.6812  100.1798 H        72        0    0.0000
   1112 H         182.5834  218.3566  101.6337 H        72        0    0.0000
   1113 H         183.2549  220.0143   99.1447 H        72        0    0.0000
   1114 H         182.8984  220.6669  100.7390 H        72        0    0.0000
   1115 C         185.4150  222.8516   98.3143 C.3      73        0    0.0000
   1116 C         185.4259  221.3353   98.5249 C.3      73        0    0.0000
   1117 C         185.5971  221.1112  100.0331 C.3      73        0    0.0000
   1118 C         184.9140  219.8272  100.5120 C.3      73        0    0.0000
   1119 C         185.0343  222.3994  100.6427 C.3      73        0    0.0000
   1120 C         185.5802  223.4806   99.7040 C.3      73        0    0.0000
   1121 C         184.8782  224.8367   99.8162 C.3      73        0    0.0000
   1122 H         186.2196  223.1680   97.6418 H        73        0    0.0000
   1123 H         184.4673  223.1488   97.8494 H        73        0    0.0000
   1124 H         186.2362  220.8589   97.9625 H        73        0    0.0000
   1125 H         184.4834  220.9093   98.1603 H        73        0    0.0000
   1126 H         186.6738  221.0608  100.2519 H        73        0    0.0000
   1127 H         185.0639  219.7190  101.5929 H        73        0    0.0000
   1128 H         185.3755  218.9521  100.0398 H        73        0    0.0000
   1129 H         185.3712  222.5451  101.6739 H        73        0    0.0000
   1130 H         183.9372  222.3907  100.6359 H        73        0    0.0000
   1131 H         186.6556  223.6038   99.8987 H        73        0    0.0000
   1132 H         184.6144  225.0432  100.8600 H        73        0    0.0000
   1133 H         183.9379  224.8053   99.2528 H        73        0    0.0000
   1134 C         186.9565  225.0855   95.7778 C.3      74        0    0.0000
   1135 C         186.4889  224.6720   97.1662 C.3      74        0    0.0000
   1136 C         185.9327  225.9781   97.7425 C.3      74        0    0.0000
   1137 C         185.7470  225.9995   99.2628 C.3      74        0    0.0000
   1138 C         186.8310  227.0906   97.1672 C.3      74        0    0.0000
   1139 C         187.6425  226.4312   96.0349 C.3      74        0    0.0000
   1140 C         187.8716  227.3000   94.7944 C.3      74        0    0.0000
   1141 H         187.6412  224.3516   95.3415 H        74        0    0.0000
   1142 H         186.0931  225.1839   95.1106 H        74        0    0.0000
   1143 H         185.7298  223.8848   97.1243 H        74        0    0.0000
   1144 H         187.3387  224.2948   97.7457 H        74        0    0.0000
   1145 H         184.9335  226.1203   97.3037 H        74        0    0.0000
   1146 H         186.7314  225.9636   99.7443 H        74        0    0.0000
   1147 H         185.2882  226.9516   99.5546 H        74        0    0.0000
   1148 H         187.5159  227.5120   97.9109 H        74        0    0.0000
   1149 H         186.2073  227.9200   96.8167 H        74        0    0.0000
   1150 H         188.6377  226.2081   96.4482 H        74        0    0.0000
   1151 H         188.9499  227.4143   94.6315 H        74        0    0.0000
   1152 H         187.4734  226.7808   93.9146 H        74        0    0.0000
   1153 C         187.2249  228.7154   94.8755 C.3      75        0    0.0000
   1154 C         185.7701  228.7655   94.3871 C.3      75        0    0.0000
   1155 H         187.2395  229.0103   95.9326 H        75        0    0.0000
   1156 H         187.8507  229.4388   94.3397 H        75        0    0.0000
   1157 H         185.2390  227.8352   94.6199 H        75        0    0.0000
   1158 H         185.2550  229.5661   94.9334 H        75        0    0.0000
   1159 H         185.6667  228.9918   93.3259 H        75        0    0.0000
   1160 H         245.8829  145.7284  121.3557 H         0        0    0.0000
@<TRIPOS>BOND
     1     1     2      1
     2     1     6      1
     3     1     8      1
     4     1     9      1
     5     2     3      1
     6     2    10      1
     7     2    11      1
     8     3     4      1
     9     3     5      1
    10     3    12      1
    11     4    13      1
    12     4    14      1
    13     4  1160      H
    14     5     6      1
    15     5    15      1
    16     5    16      1
    17     6     7      1
    18     6    17      1
    19     7    18      1
    20     7    19      1
    21     7    23      1
    22    20    21      1
    23    20    25      1
    24    20    27      1
    25    20    28      1
    26    21    22      1
    27    21    29      1
    28    21    30      1
    29    22    23      1
    30    22    24      1
    31    22    31      1
    32    23    32      1
    33    23    33      1
    34    24    25      1
    35    24    34      1
    36    24    35      1
    37    25    26      1
    38    25    36      1
    39    26    37      1
    40    26    38      1
    41    26    39      1
    42    39    40      1
    43    39    41      1
    44    39    42      1
    45    40    43      1
    46    40    44      1
    47    40    48      1
    48    45    46      1
    49    45    50      1
    50    45    52      1
    51    45    53      1
    52    46    47      1
    53    46    54      1
    54    46    55      1
    55    47    48      1
    56    47    49      1
    57    47    56      1
    58    48    57      1
    59    48    58      1
    60    49    50      1
    61    49    59      1
    62    49    60      1
    63    50    51      1
    64    50    61      1
    65    51    62      1
    66    51    63      1
    67    51    64      1
    68    64    65      1
    69    64    66      1
    70    64    67      1
    71    65    68      1
    72    65    69      1
    73    65    73      1
    74    70    71      1
    75    70    75      1
    76    70    77      1
    77    70    78      1
    78    71    72      1
    79    71    79      1
    80    71    80      1
    81    72    73      1
    82    72    74      1
    83    72    81      1
    84    73    82      1
    85    73    83      1
    86    74    75      1
    87    74    84      1
    88    74    85      1
    89    75    76      1
    90    75    86      1
    91    76    87      1
    92    76    88      1
    93    76    92      1
    94    89    90      1
    95    89    94      1
    96    89    96      1
    97    89    97      1
    98    90    91      1
    99    90    98      1
   100    90    99      1
   101    91    92      1
   102    91    93      1
   103    91   100      1
   104    92   101      1
   105    92   102      1
   106    93    94      1
   107    93   103      1
   108    93   104      1
   109    94    95      1
   110    94   105      1
   111    95   106      1
   112    95   107      1
   113    95   108      1
   114   108   109      1
   115   108   110      1
   116   108   111      1
   117   109   112      1
   118   109   113      1
   119   109   114      1
   120   114   115      1
   121   114   116      1
   122   114   117      1
   123   115   118      1
   124   115   119      1
   125   115   120      1
   126   120   121      1
   127   120   122      1
   128   120   123      1
   129   121   124      1
   130   121   125      1
   131   121   126      1
   132   126   127      1
   133   126   128      1
   134   126   129      1
   135   127   130      1
   136   127   131      1
   137   127   135      1
   138   132   133      1
   139   132   137      1
   140   132   139      1
   141   132   140      1
   142   133   134      1
   143   133   141      1
   144   133   142      1
   145   134   135      1
   146   134   136      1
   147   134   143      1
   148   135   144      1
   149   135   145      1
   150   136   137      1
   151   136   146      1
   152   136   147      1
   153   137   138      1
   154   137   148      1
   155   138   149      1
   156   138   150      1
   157   138   154      1
   158   151   152      1
   159   151   156      1
   160   151   158      1
   161   151   159      1
   162   152   153      1
   163   152   160      1
   164   152   161      1
   165   153   154      1
   166   153   155      1
   167   153   162      1
   168   154   163      1
   169   154   164      1
   170   155   156      1
   171   155   165      1
   172   155   166      1
   173   156   157      1
   174   156   167      1
   175   157   168      1
   176   157   169      1
   177   157   170      1
   178   170   171      1
   179   170   172      1
   180   170   173      1
   181   171   174      1
   182   171   175      1
   183   171   179      1
   184   176   177      1
   185   176   181      1
   186   176   183      1
   187   176   184      1
   188   177   178      1
   189   177   185      1
   190   177   186      1
   191   178   179      1
   192   178   180      1
   193   178   187      1
   194   179   188      1
   195   179   189      1
   196   180   181      1
   197   180   190      1
   198   180   191      1
   199   181   182      1
   200   181   192      1
   201   182   193      1
   202   182   194      1
   203   182   195      1
   204   195   196      1
   205   195   197      1
   206   195   198      1
   207   196   199      1
   208   196   200      1
   209   196   204      1
   210   201   202      1
   211   201   206      1
   212   201   208      1
   213   201   209      1
   214   202   203      1
   215   202   210      1
   216   202   211      1
   217   203   204      1
   218   203   205      1
   219   203   212      1
   220   204   213      1
   221   204   214      1
   222   205   206      1
   223   205   215      1
   224   205   216      1
   225   206   207      1
   226   206   217      1
   227   207   218      1
   228   207   219      1
   229   207   223      1
   230   220   221      1
   231   220   225      1
   232   220   227      1
   233   220   228      1
   234   221   222      1
   235   221   229      1
   236   221   230      1
   237   222   223      1
   238   222   224      1
   239   222   231      1
   240   223   232      1
   241   223   233      1
   242   224   225      1
   243   224   234      1
   244   224   235      1
   245   225   226      1
   246   225   236      1
   247   226   237      1
   248   226   238      1
   249   226   242      1
   250   239   240      1
   251   239   244      1
   252   239   246      1
   253   239   247      1
   254   240   241      1
   255   240   248      1
   256   240   249      1
   257   241   242      1
   258   241   243      1
   259   241   250      1
   260   242   251      1
   261   242   252      1
   262   243   244      1
   263   243   253      1
   264   243   254      1
   265   244   245      1
   266   244   255      1
   267   245   256      1
   268   245   257      1
   269   245   261      1
   270   258   259      1
   271   258   263      1
   272   258   265      1
   273   258   266      1
   274   259   260      1
   275   259   267      1
   276   259   268      1
   277   260   261      1
   278   260   262      1
   279   260   269      1
   280   261   270      1
   281   261   271      1
   282   262   263      1
   283   262   272      1
   284   262   273      1
   285   263   264      1
   286   263   274      1
   287   264   275      1
   288   264   276      1
   289   264   277      1
   290   277   278      1
   291   277   279      1
   292   277   280      1
   293   278   281      1
   294   278   282      1
   295   278   286      1
   296   283   284      1
   297   283   288      1
   298   283   290      1
   299   283   291      1
   300   284   285      1
   301   284   292      1
   302   284   293      1
   303   285   286      1
   304   285   287      1
   305   285   294      1
   306   286   295      1
   307   286   296      1
   308   287   288      1
   309   287   297      1
   310   287   298      1
   311   288   289      1
   312   288   299      1
   313   289   300      1
   314   289   301      1
   315   289   305      1
   316   302   303      1
   317   302   307      1
   318   302   309      1
   319   302   310      1
   320   303   304      1
   321   303   311      1
   322   303   312      1
   323   304   305      1
   324   304   306      1
   325   304   313      1
   326   305   314      1
   327   305   315      1
   328   306   307      1
   329   306   316      1
   330   306   317      1
   331   307   308      1
   332   307   318      1
   333   308   319      1
   334   308   320      1
   335   308   324      1
   336   321   322      1
   337   321   326      1
   338   321   328      1
   339   321   329      1
   340   322   323      1
   341   322   330      1
   342   322   331      1
   343   323   324      1
   344   323   325      1
   345   323   332      1
   346   324   333      1
   347   324   334      1
   348   325   326      1
   349   325   335      1
   350   325   336      1
   351   326   327      1
   352   326   337      1
   353   327   338      1
   354   327   339      1
   355   327   343      1
   356   340   341      1
   357   340   345      1
   358   340   347      1
   359   340   348      1
   360   341   342      1
   361   341   349      1
   362   341   350      1
   363   342   343      1
   364   342   344      1
   365   342   351      1
   366   343   352      1
   367   343   353      1
   368   344   345      1
   369   344   354      1
   370   344   355      1
   371   345   346      1
   372   345   356      1
   373   346   357      1
   374   346   358      1
   375   346   362      1
   376   359   360      1
   377   359   364      1
   378   359   366      1
   379   359   367      1
   380   360   361      1
   381   360   368      1
   382   360   369      1
   383   361   362      1
   384   361   363      1
   385   361   370      1
   386   362   371      1
   387   362   372      1
   388   363   364      1
   389   363   373      1
   390   363   374      1
   391   364   365      1
   392   364   375      1
   393   365   376      1
   394   365   377      1
   395   365   381      1
   396   378   379      1
   397   378   383      1
   398   378   385      1
   399   378   386      1
   400   379   380      1
   401   379   387      1
   402   379   388      1
   403   380   381      1
   404   380   382      1
   405   380   389      1
   406   381   390      1
   407   381   391      1
   408   382   383      1
   409   382   392      1
   410   382   393      1
   411   383   384      1
   412   383   394      1
   413   384   395      1
   414   384   396      1
   415   384   397      1
   416   397   398      1
   417   397   399      1
   418   397   400      1
   419   398   401      1
   420   398   402      1
   421   398   406      1
   422   403   404      1
   423   403   408      1
   424   403   410      1
   425   403   411      1
   426   404   405      1
   427   404   412      1
   428   404   413      1
   429   405   406      1
   430   405   407      1
   431   405   414      1
   432   406   415      1
   433   406   416      1
   434   407   408      1
   435   407   417      1
   436   407   418      1
   437   408   409      1
   438   408   419      1
   439   409   420      1
   440   409   421      1
   441   409   425      1
   442   422   423      1
   443   422   427      1
   444   422   429      1
   445   422   430      1
   446   423   424      1
   447   423   431      1
   448   423   432      1
   449   424   425      1
   450   424   426      1
   451   424   433      1
   452   425   434      1
   453   425   435      1
   454   426   427      1
   455   426   436      1
   456   426   437      1
   457   427   428      1
   458   427   438      1
   459   428   439      1
   460   428   440      1
   461   428   444      1
   462   441   442      1
   463   441   446      1
   464   441   448      1
   465   441   449      1
   466   442   443      1
   467   442   450      1
   468   442   451      1
   469   443   444      1
   470   443   445      1
   471   443   452      1
   472   444   453      1
   473   444   454      1
   474   445   446      1
   475   445   455      1
   476   445   456      1
   477   446   447      1
   478   446   457      1
   479   447   458      1
   480   447   459      1
   481   447   463      1
   482   460   461      1
   483   460   465      1
   484   460   467      1
   485   460   468      1
   486   461   462      1
   487   461   469      1
   488   461   470      1
   489   462   463      1
   490   462   464      1
   491   462   471      1
   492   463   472      1
   493   463   473      1
   494   464   465      1
   495   464   474      1
   496   464   475      1
   497   465   466      1
   498   465   476      1
   499   466   477      1
   500   466   478      1
   501   466   479      1
   502   479   480      1
   503   479   481      1
   504   479   482      1
   505   480   483      1
   506   480   484      1
   507   480   488      1
   508   485   486      1
   509   485   490      1
   510   485   492      1
   511   485   493      1
   512   486   487      1
   513   486   494      1
   514   486   495      1
   515   487   488      1
   516   487   489      1
   517   487   496      1
   518   488   497      1
   519   488   498      1
   520   489   490      1
   521   489   499      1
   522   489   500      1
   523   490   491      1
   524   490   501      1
   525   491   502      1
   526   491   503      1
   527   491   507      1
   528   504   505      1
   529   504   509      1
   530   504   511      1
   531   504   512      1
   532   505   506      1
   533   505   513      1
   534   505   514      1
   535   506   507      1
   536   506   508      1
   537   506   515      1
   538   507   516      1
   539   507   517      1
   540   508   509      1
   541   508   518      1
   542   508   519      1
   543   509   510      1
   544   509   520      1
   545   510   521      1
   546   510   522      1
   547   510   526      1
   548   523   524      1
   549   523   528      1
   550   523   530      1
   551   523   531      1
   552   524   525      1
   553   524   532      1
   554   524   533      1
   555   525   526      1
   556   525   527      1
   557   525   534      1
   558   526   535      1
   559   526   536      1
   560   527   528      1
   561   527   537      1
   562   527   538      1
   563   528   529      1
   564   528   539      1
   565   529   540      1
   566   529   541      1
   567   529   545      1
   568   542   543      1
   569   542   547      1
   570   542   549      1
   571   542   550      1
   572   543   544      1
   573   543   551      1
   574   543   552      1
   575   544   545      1
   576   544   546      1
   577   544   553      1
   578   545   554      1
   579   545   555      1
   580   546   547      1
   581   546   556      1
   582   546   557      1
   583   547   548      1
   584   547   558      1
   585   548   559      1
   586   548   560      1
   587   548   564      1
   588   561   562      1
   589   561   566      1
   590   561   568      1
   591   561   569      1
   592   562   563      1
   593   562   570      1
   594   562   571      1
   595   563   564      1
   596   563   565      1
   597   563   572      1
   598   564   573      1
   599   564   574      1
   600   565   566      1
   601   565   575      1
   602   565   576      1
   603   566   567      1
   604   566   577      1
   605   567   578      1
   606   567   579      1
   607   567   583      1
   608   580   581      1
   609   580   585      1
   610   580   587      1
   611   580   588      1
   612   581   582      1
   613   581   589      1
   614   581   590      1
   615   582   583      1
   616   582   584      1
   617   582   591      1
   618   583   592      1
   619   583   593      1
   620   584   585      1
   621   584   594      1
   622   584   595      1
   623   585   586      1
   624   585   596      1
   625   586   597      1
   626   586   598      1
   627   586   602      1
   628   599   600      1
   629   599   604      1
   630   599   606      1
   631   599   607      1
   632   600   601      1
   633   600   608      1
   634   600   609      1
   635   601   602      1
   636   601   603      1
   637   601   610      1
   638   602   611      1
   639   602   612      1
   640   603   604      1
   641   603   613      1
   642   603   614      1
   643   604   605      1
   644   604   615      1
   645   605   616      1
   646   605   617      1
   647   605   621      1
   648   618   619      1
   649   618   623      1
   650   618   625      1
   651   618   626      1
   652   619   620      1
   653   619   627      1
   654   619   628      1
   655   620   621      1
   656   620   622      1
   657   620   629      1
   658   621   630      1
   659   621   631      1
   660   622   623      1
   661   622   632      1
   662   622   633      1
   663   623   624      1
   664   623   634      1
   665   624   635      1
   666   624   636      1
   667   624   640      1
   668   637   638      1
   669   637   642      1
   670   637   644      1
   671   637   645      1
   672   638   639      1
   673   638   646      1
   674   638   647      1
   675   639   640      1
   676   639   641      1
   677   639   648      1
   678   640   649      1
   679   640   650      1
   680   641   642      1
   681   641   651      1
   682   641   652      1
   683   642   643      1
   684   642   653      1
   685   643   654      1
   686   643   655      1
   687   643   659      1
   688   656   657      1
   689   656   661      1
   690   656   663      1
   691   656   664      1
   692   657   658      1
   693   657   665      1
   694   657   666      1
   695   658   659      1
   696   658   660      1
   697   658   667      1
   698   659   668      1
   699   659   669      1
   700   660   661      1
   701   660   670      1
   702   660   671      1
   703   661   662      1
   704   661   672      1
   705   662   673      1
   706   662   674      1
   707   662   675      1
   708   675   676      1
   709   675   677      1
   710   675   678      1
   711   676   679      1
   712   676   680      1
   713   676   684      1
   714   681   682      1
   715   681   686      1
   716   681   688      1
   717   681   689      1
   718   682   683      1
   719   682   690      1
   720   682   691      1
   721   683   684      1
   722   683   685      1
   723   683   692      1
   724   684   693      1
   725   684   694      1
   726   685   686      1
   727   685   695      1
   728   685   696      1
   729   686   687      1
   730   686   697      1
   731   687   698      1
   732   687   699      1
   733   687   703      1
   734   700   701      1
   735   700   705      1
   736   700   707      1
   737   700   708      1
   738   701   702      1
   739   701   709      1
   740   701   710      1
   741   702   703      1
   742   702   704      1
   743   702   711      1
   744   703   712      1
   745   703   713      1
   746   704   705      1
   747   704   714      1
   748   704   715      1
   749   705   706      1
   750   705   716      1
   751   706   717      1
   752   706   718      1
   753   706   722      1
   754   719   720      1
   755   719   724      1
   756   719   726      1
   757   719   727      1
   758   720   721      1
   759   720   728      1
   760   720   729      1
   761   721   722      1
   762   721   723      1
   763   721   730      1
   764   722   731      1
   765   722   732      1
   766   723   724      1
   767   723   733      1
   768   723   734      1
   769   724   725      1
   770   724   735      1
   771   725   736      1
   772   725   737      1
   773   725   741      1
   774   738   739      1
   775   738   743      1
   776   738   745      1
   777   738   746      1
   778   739   740      1
   779   739   747      1
   780   739   748      1
   781   740   741      1
   782   740   742      1
   783   740   749      1
   784   741   750      1
   785   741   751      1
   786   742   743      1
   787   742   752      1
   788   742   753      1
   789   743   744      1
   790   743   754      1
   791   744   755      1
   792   744   756      1
   793   744   760      1
   794   757   758      1
   795   757   762      1
   796   757   764      1
   797   757   765      1
   798   758   759      1
   799   758   766      1
   800   758   767      1
   801   759   760      1
   802   759   761      1
   803   759   768      1
   804   760   769      1
   805   760   770      1
   806   761   762      1
   807   761   771      1
   808   761   772      1
   809   762   763      1
   810   762   773      1
   811   763   774      1
   812   763   775      1
   813   763   779      1
   814   776   777      1
   815   776   781      1
   816   776   783      1
   817   776   784      1
   818   777   778      1
   819   777   785      1
   820   777   786      1
   821   778   779      1
   822   778   780      1
   823   778   787      1
   824   779   788      1
   825   779   789      1
   826   780   781      1
   827   780   790      1
   828   780   791      1
   829   781   782      1
   830   781   792      1
   831   782   793      1
   832   782   794      1
   833   782   795      1
   834   795   796      1
   835   795   797      1
   836   795   798      1
   837   796   799      1
   838   796   800      1
   839   796   804      1
   840   801   802      1
   841   801   806      1
   842   801   808      1
   843   801   809      1
   844   802   803      1
   845   802   810      1
   846   802   811      1
   847   803   804      1
   848   803   805      1
   849   803   812      1
   850   804   813      1
   851   804   814      1
   852   805   806      1
   853   805   815      1
   854   805   816      1
   855   806   807      1
   856   806   817      1
   857   807   818      1
   858   807   819      1
   859   807   823      1
   860   820   821      1
   861   820   825      1
   862   820   827      1
   863   820   828      1
   864   821   822      1
   865   821   829      1
   866   821   830      1
   867   822   823      1
   868   822   824      1
   869   822   831      1
   870   823   832      1
   871   823   833      1
   872   824   825      1
   873   824   834      1
   874   824   835      1
   875   825   826      1
   876   825   836      1
   877   826   837      1
   878   826   838      1
   879   826   839      1
   880   839   840      1
   881   839   841      1
   882   839   842      1
   883   840   843      1
   884   840   844      1
   885   840   848      1
   886   845   846      1
   887   845   850      1
   888   845   852      1
   889   845   853      1
   890   846   847      1
   891   846   854      1
   892   846   855      1
   893   847   848      1
   894   847   849      1
   895   847   856      1
   896   848   857      1
   897   848   858      1
   898   849   850      1
   899   849   859      1
   900   849   860      1
   901   850   851      1
   902   850   861      1
   903   851   862      1
   904   851   863      1
   905   851   867      1
   906   864   865      1
   907   864   869      1
   908   864   871      1
   909   864   872      1
   910   865   866      1
   911   865   873      1
   912   865   874      1
   913   866   867      1
   914   866   868      1
   915   866   875      1
   916   867   876      1
   917   867   877      1
   918   868   869      1
   919   868   878      1
   920   868   879      1
   921   869   870      1
   922   869   880      1
   923   870   881      1
   924   870   882      1
   925   870   883      1
   926   883   884      1
   927   883   885      1
   928   883   886      1
   929   884   887      1
   930   884   888      1
   931   884   892      1
   932   889   890      1
   933   889   894      1
   934   889   896      1
   935   889   897      1
   936   890   891      1
   937   890   898      1
   938   890   899      1
   939   891   892      1
   940   891   893      1
   941   891   900      1
   942   892   901      1
   943   892   902      1
   944   893   894      1
   945   893   903      1
   946   893   904      1
   947   894   895      1
   948   894   905      1
   949   895   906      1
   950   895   907      1
   951   895   908      1
   952   908   909      1
   953   908   910      1
   954   908   911      1
   955   909   912      1
   956   909   913      1
   957   909   917      1
   958   914   915      1
   959   914   919      1
   960   914   921      1
   961   914   922      1
   962   915   916      1
   963   915   923      1
   964   915   924      1
   965   916   917      1
   966   916   918      1
   967   916   925      1
   968   917   926      1
   969   917   927      1
   970   918   919      1
   971   918   928      1
   972   918   929      1
   973   919   920      1
   974   919   930      1
   975   920   931      1
   976   920   932      1
   977   920   936      1
   978   933   934      1
   979   933   938      1
   980   933   940      1
   981   933   941      1
   982   934   935      1
   983   934   942      1
   984   934   943      1
   985   935   936      1
   986   935   937      1
   987   935   944      1
   988   936   945      1
   989   936   946      1
   990   937   938      1
   991   937   947      1
   992   937   948      1
   993   938   939      1
   994   938   949      1
   995   939   950      1
   996   939   951      1
   997   939   955      1
   998   952   953      1
   999   952   957      1
  1000   952   959      1
  1001   952   960      1
  1002   953   954      1
  1003   953   961      1
  1004   953   962      1
  1005   954   955      1
  1006   954   956      1
  1007   954   963      1
  1008   955   964      1
  1009   955   965      1
  1010   956   957      1
  1011   956   966      1
  1012   956   967      1
  1013   957   958      1
  1014   957   968      1
  1015   958   969      1
  1016   958   970      1
  1017   958   971      1
  1018   971   972      1
  1019   971   973      1
  1020   971   974      1
  1021   972   975      1
  1022   972   976      1
  1023   972   980      1
  1024   977   978      1
  1025   977   982      1
  1026   977   984      1
  1027   977   985      1
  1028   978   979      1
  1029   978   986      1
  1030   978   987      1
  1031   979   980      1
  1032   979   981      1
  1033   979   988      1
  1034   980   989      1
  1035   980   990      1
  1036   981   982      1
  1037   981   991      1
  1038   981   992      1
  1039   982   983      1
  1040   982   993      1
  1041   983   994      1
  1042   983   995      1
  1043   983   999      1
  1044   996   997      1
  1045   996  1001      1
  1046   996  1003      1
  1047   996  1004      1
  1048   997   998      1
  1049   997  1005      1
  1050   997  1006      1
  1051   998   999      1
  1052   998  1000      1
  1053   998  1007      1
  1054   999  1008      1
  1055   999  1009      1
  1056  1000  1001      1
  1057  1000  1010      1
  1058  1000  1011      1
  1059  1001  1002      1
  1060  1001  1012      1
  1061  1002  1013      1
  1062  1002  1014      1
  1063  1002  1015      1
  1064  1015  1016      1
  1065  1015  1017      1
  1066  1015  1018      1
  1067  1016  1019      1
  1068  1016  1020      1
  1069  1016  1024      1
  1070  1021  1022      1
  1071  1021  1026      1
  1072  1021  1028      1
  1073  1021  1029      1
  1074  1022  1023      1
  1075  1022  1030      1
  1076  1022  1031      1
  1077  1023  1024      1
  1078  1023  1025      1
  1079  1023  1032      1
  1080  1024  1033      1
  1081  1024  1034      1
  1082  1025  1026      1
  1083  1025  1035      1
  1084  1025  1036      1
  1085  1026  1027      1
  1086  1026  1037      1
  1087  1027  1038      1
  1088  1027  1039      1
  1089  1027  1043      1
  1090  1040  1041      1
  1091  1040  1045      1
  1092  1040  1047      1
  1093  1040  1048      1
  1094  1041  1042      1
  1095  1041  1049      1
  1096  1041  1050      1
  1097  1042  1043      1
  1098  1042  1044      1
  1099  1042  1051      1
  1100  1043  1052      1
  1101  1043  1053      1
  1102  1044  1045      1
  1103  1044  1054      1
  1104  1044  1055      1
  1105  1045  1046      1
  1106  1045  1056      1
  1107  1046  1057      1
  1108  1046  1058      1
  1109  1046  1059      1
  1110  1059  1060      1
  1111  1059  1061      1
  1112  1059  1062      1
  1113  1060  1063      1
  1114  1060  1064      1
  1115  1060  1068      1
  1116  1065  1066      1
  1117  1065  1070      1
  1118  1065  1072      1
  1119  1065  1073      1
  1120  1066  1067      1
  1121  1066  1074      1
  1122  1066  1075      1
  1123  1067  1068      1
  1124  1067  1069      1
  1125  1067  1076      1
  1126  1068  1077      1
  1127  1068  1078      1
  1128  1069  1070      1
  1129  1069  1079      1
  1130  1069  1080      1
  1131  1070  1071      1
  1132  1070  1081      1
  1133  1071  1082      1
  1134  1071  1083      1
  1135  1071  1087      1
  1136  1084  1085      1
  1137  1084  1089      1
  1138  1084  1091      1
  1139  1084  1092      1
  1140  1085  1086      1
  1141  1085  1093      1
  1142  1085  1094      1
  1143  1086  1087      1
  1144  1086  1088      1
  1145  1086  1095      1
  1146  1087  1096      1
  1147  1087  1097      1
  1148  1088  1089      1
  1149  1088  1098      1
  1150  1088  1099      1
  1151  1089  1090      1
  1152  1089  1100      1
  1153  1090  1101      1
  1154  1090  1102      1
  1155  1090  1103      1
  1156  1103  1104      1
  1157  1103  1105      1
  1158  1103  1106      1
  1159  1104  1107      1
  1160  1104  1108      1
  1161  1104  1109      1
  1162  1109  1110      1
  1163  1109  1111      1
  1164  1109  1112      1
  1165  1110  1113      1
  1166  1110  1114      1
  1167  1110  1118      1
  1168  1115  1116      1
  1169  1115  1120      1
  1170  1115  1122      1
  1171  1115  1123      1
  1172  1116  1117      1
  1173  1116  1124      1
  1174  1116  1125      1
  1175  1117  1118      1
  1176  1117  1119      1
  1177  1117  1126      1
  1178  1118  1127      1
  1179  1118  1128      1
  1180  1119  1120      1
  1181  1119  1129      1
  1182  1119  1130      1
  1183  1120  1121      1
  1184  1120  1131      1
  1185  1121  1132      1
  1186  1121  1133      1
  1187  1121  1137      1
  1188  1134  1135      1
  1189  1134  1139      1
  1190  1134  1141      1
  1191  1134  1142      1
  1192  1135  1136      1
  1193  1135  1143      1
  1194  1135  1144      1
  1195  1136  1137      1
  1196  1136  1138      1
  1197  1136  1145      1
  1198  1137  1146      1
  1199  1137  1147      1
  1200  1138  1139      1
  1201  1138  1148      1
  1202  1138  1149      1
  1203  1139  1140      1
  1204  1139  1150      1
  1205  1140  1151      1
  1206  1140  1152      1
  1207  1140  1153      1
  1208  1153  1154      1
  1209  1153  1155      1
  1210  1153  1156      1
  1211  1154  1157      1
  1212  1154  1158      1
  1213  1154  1159      H
