###
### Created by PolyChef-cpp17 on Wed Feb 26 21:14:12 2025
###

@<TRIPOS>MOLECULE
NO_INFO
997 1043 1 0 0
SMALL
USER_CHARGES


@<TRIPOS>ATOM
      1 C         127.1698   57.3342  176.8248 C.3       0        0    0.0000
      2 C         127.6221   56.4873  178.0061 C.3       0        0    0.0000
      3 C         128.9460   57.1442  178.4105 C.3       0        0    0.0000
      4 C         129.8524   56.2977  179.3094 C.3       0        0    0.0000
      5 C         129.5806   57.6242  177.0905 C.3       0        0    0.0000
      6 C         128.4651   57.5328  176.0309 C.3       0        0    0.0000
      7 C         128.4379   58.6666  175.0013 C.3       0        0    0.0000
      8 H         126.3980   56.8319  176.2334 H         0        0    0.0000
      9 H         126.7581   58.2830  177.1859 H         0        0    0.0000
     10 H         126.8916   56.4988  178.8209 H         0        0    0.0000
     11 H         127.7584   55.4484  177.6860 H         0        0    0.0000
     12 H         128.6913   58.0473  178.9854 H         0        0    0.0000
     13 H         130.0435   55.3351  178.8203 H         0        0    0.0000
     14 H         130.8230   56.7972  179.4118 H         0        0    0.0000
     15 H         130.4323   57.0098  176.7794 H         0        0    0.0000
     16 H         129.9644   58.6422  177.2179 H         0        0    0.0000
     17 H         128.6398   56.6036  175.4678 H         0        0    0.0000
     18 H         129.0862   59.4802  175.3475 H         0        0    0.0000
     19 H         128.8635   58.3044  174.0580 H         0        0    0.0000
     20 C         127.0461   61.4372  171.7281 C.3       1        0    0.0000
     21 C         127.8828   60.6427  172.7338 C.3       1        0    0.0000
     22 C         127.0849   60.6204  174.0499 C.3       1        0    0.0000
     23 C         127.0176   59.2430  174.7209 C.3       1        0    0.0000
     24 C         125.6998   61.1506  173.6658 C.3       1        0    0.0000
     25 C         125.9703   62.1606  172.5455 C.3       1        0    0.0000
     26 C         126.4363   63.5260  173.0854 C.3       1        0    0.0000
     27 H         127.6645   62.1061  171.1220 H         1        0    0.0000
     28 H         126.5616   60.7342  171.0383 H         1        0    0.0000
     29 H         128.0866   59.6398  172.3426 H         1        0    0.0000
     30 H         128.8513   61.1307  172.8941 H         1        0    0.0000
     31 H         127.5446   61.3383  174.7441 H         1        0    0.0000
     32 H         126.4826   59.3292  175.6741 H         1        0    0.0000
     33 H         126.4487   58.5418  174.0995 H         1        0    0.0000
     34 H         125.1785   61.5934  174.5207 H         1        0    0.0000
     35 H         125.0724   60.3363  173.2805 H         1        0    0.0000
     36 H         125.0619   62.2961  171.9449 H         1        0    0.0000
     37 H         127.1820   63.4043  173.8789 H         1        0    0.0000
     38 H         125.5828   64.0527  173.5284 H         1        0    0.0000
     39 C         127.0260   64.4222  171.9580 C.3       2        0    0.0000
     40 C         128.5106   64.7657  172.1463 C.3       2        0    0.0000
     41 H         126.9227   63.8609  171.0205 H         2        0    0.0000
     42 H         126.4177   65.3278  171.8497 H         2        0    0.0000
     43 H         128.6360   65.6949  172.7144 H         2        0    0.0000
     44 H         128.9715   63.9683  172.7433 H         2        0    0.0000
     45 C         127.4765   62.1337  169.0786 C.3       3        0    0.0000
     46 C         128.0809   62.6269  170.3956 C.3       3        0    0.0000
     47 C         129.2666   63.5349  170.0230 C.3       3        0    0.0000
     48 C         129.3194   64.8526  170.8059 C.3       3        0    0.0000
     49 C         129.1175   63.7580  168.5146 C.3       3        0    0.0000
     50 C         128.5069   62.4540  167.9902 C.3       3        0    0.0000
     51 C         129.5594   61.3441  167.8076 C.3       3        0    0.0000
     52 H         127.2005   61.0761  169.1279 H         3        0    0.0000
     53 H         126.5560   62.6973  168.8795 H         3        0    0.0000
     54 H         127.3180   63.1445  170.9875 H         3        0    0.0000
     55 H         128.4350   61.7793  170.9939 H         3        0    0.0000
     56 H         130.1971   62.9751  170.1949 H         3        0    0.0000
     57 H         130.3627   65.0920  171.0439 H         3        0    0.0000
     58 H         128.9359   65.6772  170.1940 H         3        0    0.0000
     59 H         130.0735   64.0011  168.0395 H         3        0    0.0000
     60 H         128.4286   64.5896  168.3177 H         3        0    0.0000
     61 H         128.0044   62.6418  167.0329 H         3        0    0.0000
     62 H         129.1064   60.4315  167.4048 H         3        0    0.0000
     63 H         129.9868   61.0838  168.7832 H         3        0    0.0000
     64 C         130.7206   61.7970  166.8757 C.3       4        0    0.0000
     65 C         130.9921   60.8394  165.7066 C.3       4        0    0.0000
     66 H         130.4310   62.7700  166.4586 H         4        0    0.0000
     67 H         131.6260   61.9678  167.4699 H         4        0    0.0000
     68 H         132.0645   60.7671  165.4910 H         4        0    0.0000
     69 H         130.6637   59.8357  166.0054 H         4        0    0.0000
     70 C         128.8918   62.8093  166.9325 C.3       5        0    0.0000
     71 C         128.4265   61.5725  166.1591 C.3       5        0    0.0000
     72 C         128.8251   61.7965  164.6963 C.3       5        0    0.0000
     73 C         130.2124   61.1988  164.3945 C.3       5        0    0.0000
     74 C         128.7510   63.3237  164.5734 C.3       5        0    0.0000
     75 C         129.3466   63.8398  165.8857 C.3       5        0    0.0000
     76 C         128.9255   65.2820  166.1898 C.3       5        0    0.0000
     77 H         128.0742   63.1826  167.5597 H         5        0    0.0000
     78 H         129.7233   62.5560  167.6002 H         5        0    0.0000
     79 H         127.3337   61.5018  166.2299 H         5        0    0.0000
     80 H         128.8349   60.6487  166.5814 H         5        0    0.0000
     81 H         128.0848   61.3301  164.0336 H         5        0    0.0000
     82 H         130.8051   61.9301  163.8317 H         5        0    0.0000
     83 H         130.1323   60.3085  163.7617 H         5        0    0.0000
     84 H         127.7006   63.6306  164.4858 H         5        0    0.0000
     85 H         129.2813   63.7191  163.7019 H         5        0    0.0000
     86 H         130.4422   63.7959  165.8102 H         5        0    0.0000
     87 H         129.4369   65.6472  167.0880 H         5        0    0.0000
     88 H         127.8503   65.3102  166.4023 H         5        0    0.0000
     89 C         132.8984   67.0886  164.9896 C.3       6        0    0.0000
     90 C         131.7164   66.2725  165.5191 C.3       6        0    0.0000
     91 C         130.4588   67.1071  165.2435 C.3       6        0    0.0000
     92 C         129.2242   66.2355  164.9973 C.3       6        0    0.0000
     93 C         130.8731   67.9782  164.0529 C.3       6        0    0.0000
     94 C         132.3058   68.3825  164.4160 C.3       6        0    0.0000
     95 C         133.1292   68.9320  163.2478 C.3       6        0    0.0000
     96 H         133.6220   67.3059  165.7826 H         6        0    0.0000
     97 H         133.4241   66.5120  164.2191 H         6        0    0.0000
     98 H         131.8220   66.0630  166.5891 H         6        0    0.0000
     99 H         131.6785   65.3066  165.0013 H         6        0    0.0000
    100 H         130.2836   67.7595  166.1113 H         6        0    0.0000
    101 H         129.3827   65.6293  164.0974 H         6        0    0.0000
    102 H         128.3471   66.8643  164.8044 H         6        0    0.0000
    103 H         130.2197   68.8487  163.9360 H         6        0    0.0000
    104 H         130.8519   67.4028  163.1189 H         6        0    0.0000
    105 H         132.2659   69.1283  165.2232 H         6        0    0.0000
    106 H         133.7716   68.1466  162.8328 H         6        0    0.0000
    107 H         133.7940   69.7233  163.6143 H         6        0    0.0000
    108 C         132.2366   69.5194  162.1204 C.3       7        0    0.0000
    109 C         133.0192   70.2640  161.0293 C.3       7        0    0.0000
    110 H         131.7205   68.6721  161.6511 H         7        0    0.0000
    111 H         131.4592   70.1562  162.5587 H         7        0    0.0000
    112 H         133.5497   69.5654  160.3717 H         7        0    0.0000
    113 H         132.2984   70.8014  160.3999 H         7        0    0.0000
    114 C         134.0228   71.3341  161.5828 C.3       8        0    0.0000
    115 C         134.9674   71.9124  160.5195 C.3       8        0    0.0000
    116 H         134.6336   70.8319  162.3439 H         8        0    0.0000
    117 H         133.4694   72.1276  162.0987 H         8        0    0.0000
    118 H         134.3669   72.5021  159.8150 H         8        0    0.0000
    119 H         135.6948   72.6015  160.9645 H         8        0    0.0000
    120 C         135.7178   70.8252  159.6749 C.3       9        0    0.0000
    121 C         136.5661   71.3994  158.5312 C.3       9        0    0.0000
    122 H         136.3886   70.2960  160.3638 H         9        0    0.0000
    123 H         134.9997   70.0837  159.3055 H         9        0    0.0000
    124 H         136.1768   72.3667  158.1926 H         9        0    0.0000
    125 H         137.5766   71.5856  158.9171 H         9        0    0.0000
    126 C         136.7205   70.4336  157.3056 C.3      10        0    0.0000
    127 C         137.5777   71.0036  156.1663 C.3      10        0    0.0000
    128 H         135.7108   70.2538  156.9147 H        10        0    0.0000
    129 H         137.1024   69.4637  157.6453 H        10        0    0.0000
    130 H         137.3475   72.0723  156.0689 H        10        0    0.0000
    131 H         138.6470   70.9332  156.3981 H        10        0    0.0000
    132 C         139.5914   72.6198  152.7626 C.3      11        0    0.0000
    133 C         139.2950   71.8185  154.0226 C.3      11        0    0.0000
    134 C         138.0850   70.9725  153.6128 C.3      11        0    0.0000
    135 C         137.2958   70.3506  154.7689 C.3      11        0    0.0000
    136 C         137.2704   71.8658  152.6568 C.3      11        0    0.0000
    137 C         138.1963   73.0421  152.2902 C.3      11        0    0.0000
    138 C         138.1111   73.5217  150.8379 C.3      11        0    0.0000
    139 H         140.2343   73.4814  152.9678 H        11        0    0.0000
    140 H         140.0993   71.9830  152.0300 H        11        0    0.0000
    141 H         140.1463   71.2001  154.3234 H        11        0    0.0000
    142 H         139.0610   72.4999  154.8479 H        11        0    0.0000
    143 H         138.4703   70.1352  153.0114 H        11        0    0.0000
    144 H         136.2236   70.4290  154.5534 H        11        0    0.0000
    145 H         137.5281   69.2806  154.8268 H        11        0    0.0000
    146 H         136.3522   72.2512  153.1131 H        11        0    0.0000
    147 H         136.9598   71.2806  151.7846 H        11        0    0.0000
    148 H         137.8907   73.8924  152.9184 H        11        0    0.0000
    149 H         138.6140   72.7937  150.1904 H        11        0    0.0000
    150 H         137.0594   73.5443  150.5290 H        11        0    0.0000
    151 C         135.7078   76.4891  148.9715 C.3      12        0    0.0000
    152 C         136.5177   75.2570  149.3837 C.3      12        0    0.0000
    153 C         137.9709   75.7266  149.5314 C.3      12        0    0.0000
    154 C         138.7359   74.9275  150.5901 C.3      12        0    0.0000
    155 C         137.8244   77.2201  149.8410 C.3      12        0    0.0000
    156 C         136.7054   77.6517  148.8874 C.3      12        0    0.0000
    157 C         136.0603   78.9979  149.2285 C.3      12        0    0.0000
    158 H         135.2036   76.3339  148.0116 H        12        0    0.0000
    159 H         134.9296   76.6814  149.7198 H        12        0    0.0000
    160 H         136.4370   74.4577  148.6392 H        12        0    0.0000
    161 H         136.1256   74.8617  150.3284 H        12        0    0.0000
    162 H         138.4670   75.6175  148.5560 H        12        0    0.0000
    163 H         138.7315   75.4827  151.5358 H        12        0    0.0000
    164 H         139.7857   74.8135  150.2955 H        12        0    0.0000
    165 H         138.7534   77.7690  149.6565 H        12        0    0.0000
    166 H         137.5322   77.3778  150.8867 H        12        0    0.0000
    167 H         137.1088   77.6837  147.8648 H        12        0    0.0000
    168 H         135.9372   79.0966  150.3134 H        12        0    0.0000
    169 H         135.0555   79.0389  148.7913 H        12        0    0.0000
    170 C         136.8828   80.2006  148.6900 C.3      13        0    0.0000
    171 C         136.3218   81.5713  149.0948 C.3      13        0    0.0000
    172 H         137.8922   80.1080  149.1109 H        13        0    0.0000
    173 H         136.9883   80.1184  147.6018 H        13        0    0.0000
    174 H         135.2833   81.6907  148.7644 H        13        0    0.0000
    175 H         136.3103   81.6242  150.1910 H        13        0    0.0000
    176 C         135.0105   85.6385  147.8020 C.3      14        0    0.0000
    177 C         135.1091   84.2742  148.4828 C.3      14        0    0.0000
    178 C         136.5583   84.1330  148.9796 C.3      14        0    0.0000
    179 C         137.1789   82.7843  148.5922 C.3      14        0    0.0000
    180 C         137.2921   85.3504  148.3964 C.3      14        0    0.0000
    181 C         136.2198   86.4419  148.2875 C.3      14        0    0.0000
    182 C         135.9259   87.1716  149.6111 C.3      14        0    0.0000
    183 H         135.0821   85.4990  146.7158 H        14        0    0.0000
    184 H         134.0534   86.1302  148.0023 H        14        0    0.0000
    185 H         134.8169   83.4789  147.7884 H        14        0    0.0000
    186 H         134.4217   84.2257  149.3356 H        14        0    0.0000
    187 H         136.5491   84.2212  150.0752 H        14        0    0.0000
    188 H         138.1978   82.7058  148.9889 H        14        0    0.0000
    189 H         137.2590   82.7230  147.5002 H        14        0    0.0000
    190 H         138.1470   85.6477  149.0115 H        14        0    0.0000
    191 H         137.6734   85.1205  147.3929 H        14        0    0.0000
    192 H         136.5051   87.1776  147.5248 H        14        0    0.0000
    193 H         136.2131   86.5609  150.4738 H        14        0    0.0000
    194 H         134.8463   87.3449  149.6955 H        14        0    0.0000
    195 C         136.6414   88.5499  149.6893 C.3      15        0    0.0000
    196 C         137.9126   88.5450  150.5504 C.3      15        0    0.0000
    197 H         136.9260   88.8179  148.6637 H        15        0    0.0000
    198 H         135.9331   89.3151  150.0280 H        15        0    0.0000
    199 H         137.6885   88.7961  151.5938 H        15        0    0.0000
    200 H         138.3179   87.5250  150.5533 H        15        0    0.0000
    201 C         137.0759   91.0770  147.3613 C.3      16        0    0.0000
    202 C         137.0722   90.5357  148.7902 C.3      16        0    0.0000
    203 C         138.4918   90.7456  149.3450 C.3      16        0    0.0000
    204 C         139.0493   89.4822  150.0138 C.3      16        0    0.0000
    205 C         139.3141   91.2317  148.1415 C.3      16        0    0.0000
    206 C         138.3098   91.9767  147.2531 C.3      16        0    0.0000
    207 C         138.0086   93.4155  147.7110 C.3      16        0    0.0000
    208 H         137.1797   90.2361  146.6636 H        16        0    0.0000
    209 H         136.1413   91.5895  147.1130 H        16        0    0.0000
    210 H         136.7616   89.4852  148.7998 H        16        0    0.0000
    211 H         136.3521   91.0900  149.4035 H        16        0    0.0000
    212 H         138.4470   91.5540  150.0883 H        16        0    0.0000
    213 H         139.7237   89.7519  150.8349 H        16        0    0.0000
    214 H         139.6464   88.9204  149.2854 H        16        0    0.0000
    215 H         140.1610   91.8536  148.4474 H        16        0    0.0000
    216 H         139.7187   90.3757  147.5859 H        16        0    0.0000
    217 H         138.6641   91.9946  146.2145 H        16        0    0.0000
    218 H         137.5330   93.4272  148.6975 H        16        0    0.0000
    219 H         137.2964   93.8742  147.0145 H        16        0    0.0000
    220 C         141.2544   91.3144  146.5343 C.3      17        0    0.0000
    221 C         140.4947   92.0585  147.6355 C.3      17        0    0.0000
    222 C         140.5282   93.5441  147.2534 C.3      17        0    0.0000
    223 C         139.2881   94.2986  147.7409 C.3      17        0    0.0000
    224 C         140.6962   93.5084  145.7308 C.3      17        0    0.0000
    225 C         141.7153   92.3813  145.5326 C.3      17        0    0.0000
    226 C         141.7980   91.8401  144.1026 C.3      17        0    0.0000
    227 H         142.1085   90.7619  146.9404 H        17        0    0.0000
    228 H         140.5884   90.5820  146.0624 H        17        0    0.0000
    229 H         140.9516   91.8952  148.6175 H        17        0    0.0000
    230 H         139.4665   91.6810  147.6888 H        17        0    0.0000
    231 H         141.4304   93.9913  147.6955 H        17        0    0.0000
    232 H         139.1225   95.1741  147.1017 H        17        0    0.0000
    233 H         139.4477   94.6755  148.7579 H        17        0    0.0000
    234 H         141.0602   94.4627  145.3369 H        17        0    0.0000
    235 H         139.7462   93.2705  145.2361 H        17        0    0.0000
    236 H         142.7045   92.7433  145.8486 H        17        0    0.0000
    237 H         141.0169   91.0895  143.9343 H        17        0    0.0000
    238 H         142.7598   91.3322  143.9629 H        17        0    0.0000
    239 C         138.2886   94.4412  142.6735 C.3      18        0    0.0000
    240 C         139.1584   93.4112  143.3985 C.3      18        0    0.0000
    241 C         140.2719   93.0059  142.4161 C.3      18        0    0.0000
    242 C         141.6734   92.9637  143.0374 C.3      18        0    0.0000
    243 C         140.1683   94.0272  141.2788 C.3      18        0    0.0000
    244 C         138.6745   94.3583  141.1926 C.3      18        0    0.0000
    245 C         137.8796   93.2896  140.4187 C.3      18        0    0.0000
    246 H         137.2231   94.2793  142.8619 H        18        0    0.0000
    247 H         138.5341   95.4410  143.0537 H        18        0    0.0000
    248 H         139.5470   93.8379  144.3298 H        18        0    0.0000
    249 H         138.5626   92.5317  143.6691 H        18        0    0.0000
    250 H         140.0277   92.0147  142.0080 H        18        0    0.0000
    251 H         142.4143   92.7804  142.2500 H        18        0    0.0000
    252 H         141.9218   93.9315  143.4881 H        18        0    0.0000
    253 H         140.5723   93.6369  140.3391 H        18        0    0.0000
    254 H         140.7306   94.9361  141.5293 H        18        0    0.0000
    255 H         138.5413   95.3342  140.7087 H        18        0    0.0000
    256 H         136.8928   93.1287  140.8668 H        18        0    0.0000
    257 H         138.4122   92.3325  140.4690 H        18        0    0.0000
    258 C         139.6527   95.2100  136.1589 C.3      19        0    0.0000
    259 C         139.3586   93.9356  136.9542 C.3      19        0    0.0000
    260 C         138.9488   94.3841  138.3684 C.3      19        0    0.0000
    261 C         137.7083   93.6702  138.9194 C.3      19        0    0.0000
    262 C         138.7442   95.8975  138.2449 C.3      19        0    0.0000
    263 C         139.7629   96.3395  137.1888 C.3      19        0    0.0000
    264 C         141.1815   96.4934  137.7691 C.3      19        0    0.0000
    265 H         140.5393   95.1003  135.5271 H        19        0    0.0000
    266 H         138.8054   95.4132  135.4915 H        19        0    0.0000
    267 H         138.5807   93.3509  136.4509 H        19        0    0.0000
    268 H         140.2536   93.3049  137.0086 H        19        0    0.0000
    269 H         139.7971   94.2086  139.0453 H        19        0    0.0000
    270 H         136.8376   94.3300  138.8252 H        19        0    0.0000
    271 H         137.4909   92.7713  138.3310 H        19        0    0.0000
    272 H         138.8768   96.4088  139.2038 H        19        0    0.0000
    273 H         137.7294   96.1180  137.8892 H        19        0    0.0000
    274 H         139.4442   97.2917  136.7460 H        19        0    0.0000
    275 H         141.8938   96.8031  136.9964 H        19        0    0.0000
    276 H         141.5260   95.5246  138.1500 H        19        0    0.0000
    277 C         141.2180   97.5154  138.9422 C.3      20        0    0.0000
    278 C         142.3022   98.5928  138.7975 C.3      20        0    0.0000
    279 H         140.2410   98.0154  138.9572 H        20        0    0.0000
    280 H         141.3113   96.9811  139.8949 H        20        0    0.0000
    281 H         142.7470   98.8439  139.7675 H        20        0    0.0000
    282 H         143.1103   98.1818  138.1788 H        20        0    0.0000
    283 C         139.5891  101.0746  135.4106 C.3      21        0    0.0000
    284 C         140.9565  100.4855  135.7537 C.3      21        0    0.0000
    285 C         140.7596   99.6140  137.0061 C.3      21        0    0.0000
    286 C         141.8095   99.9012  138.0876 C.3      21        0    0.0000
    287 C         139.3139   99.8867  137.4490 C.3      21        0    0.0000
    288 C         138.5610  100.2181  136.1543 C.3      21        0    0.0000
    289 C         138.1452   98.9841  135.3329 C.3      21        0    0.0000
    290 H         139.5417  102.1043  135.7874 H        21        0    0.0000
    291 H         139.4188  101.1176  134.3303 H        21        0    0.0000
    292 H         141.6906  101.2852  135.9017 H        21        0    0.0000
    293 H         141.3197   99.8641  134.9267 H        21        0    0.0000
    294 H         140.8398   98.5613  136.7001 H        21        0    0.0000
    295 H         141.4077  100.5968  138.8334 H        21        0    0.0000
    296 H         142.6756  100.3940  137.6295 H        21        0    0.0000
    297 H         138.8839   99.0388  137.9911 H        21        0    0.0000
    298 H         139.2781  100.7565  138.1178 H        21        0    0.0000
    299 H         137.6710  100.8202  136.3779 H        21        0    0.0000
    300 H         138.9142   98.2050  135.3692 H        21        0    0.0000
    301 H         138.0393   99.2708  134.2795 H        21        0    0.0000
    302 C         135.1475  101.4923  136.9034 C.3      22        0    0.0000
    303 C         136.1179  100.8572  135.9087 C.3      22        0    0.0000
    304 C         135.6421   99.4104  135.6910 C.3      22        0    0.0000
    305 C         136.7871   98.3958  135.8096 C.3      22        0    0.0000
    306 C         134.5184   99.2093  136.7194 C.3      22        0    0.0000
    307 C         133.9025  100.6015  136.9075 C.3      22        0    0.0000
    308 C         132.9082  101.0056  135.8036 C.3      22        0    0.0000
    309 H         135.6038  101.4798  137.9015 H        22        0    0.0000
    310 H         134.9332  102.5375  136.6591 H        22        0    0.0000
    311 H         137.1447  100.9163  136.2859 H        22        0    0.0000
    312 H         136.0931  101.3996  134.9562 H        22        0    0.0000
    313 H         135.2098   99.3459  134.6825 H        22        0    0.0000
    314 H         136.5552   97.4910  135.2360 H        22        0    0.0000
    315 H         136.8914   98.0884  136.8571 H        22        0    0.0000
    316 H         133.7923   98.4587  136.3924 H        22        0    0.0000
    317 H         134.9346   98.8686  137.6766 H        22        0    0.0000
    318 H         133.4050  100.6662  137.8835 H        22        0    0.0000
    319 H         133.0871  100.4418  134.8818 H        22        0    0.0000
    320 H         133.0541  102.0642  135.5565 H        22        0    0.0000
    321 C         132.7266   98.1224  138.4504 C.3      23        0    0.0000
    322 C         132.4345   98.5650  137.0145 C.3      23        0    0.0000
    323 C         131.2491   99.5440  137.0882 C.3      23        0    0.0000
    324 C         131.4310  100.8155  136.2502 C.3      23        0    0.0000
    325 C         131.0961   99.8468  138.5822 C.3      23        0    0.0000
    326 C         131.5132   98.5496  139.2834 C.3      23        0    0.0000
    327 C         130.3864   97.4993  139.2946 C.3      23        0    0.0000
    328 H         132.9484   97.0526  138.5097 H        23        0    0.0000
    329 H         133.6158   98.6557  138.8104 H        23        0    0.0000
    330 H         133.3302   99.0138  136.5711 H        23        0    0.0000
    331 H         132.1654   97.7007  136.3962 H        23        0    0.0000
    332 H         130.3448   99.0165  136.7526 H        23        0    0.0000
    333 H         130.8019  100.7530  135.3542 H        23        0    0.0000
    334 H         131.0971  101.6954  136.8121 H        23        0    0.0000
    335 H         130.0775  100.1584  138.8353 H        23        0    0.0000
    336 H         131.7741  100.6574  138.8791 H        23        0    0.0000
    337 H         131.8172   98.7701  140.3146 H        23        0    0.0000
    338 H         130.5172   96.7872  140.1170 H        23        0    0.0000
    339 H         130.4191   96.9205  138.3639 H        23        0    0.0000
    340 C         129.8999  101.7949  138.7802 C.3      24        0    0.0000
    341 C         129.6181  100.3934  138.2571 C.3      24        0    0.0000
    342 C         129.0097   99.6901  139.4748 C.3      24        0    0.0000
    343 C         128.9818   98.1602  139.4045 C.3      24        0    0.0000
    344 C         129.7399  100.2860  140.6943 C.3      24        0    0.0000
    345 C         130.4853  101.5293  140.1710 C.3      24        0    0.0000
    346 C         130.5054  102.7340  141.1169 C.3      24        0    0.0000
    347 H         130.5987  102.3386  138.1368 H        24        0    0.0000
    348 H         128.9666  102.3666  138.8281 H        24        0    0.0000
    349 H         128.9325  100.4055  137.4041 H        24        0    0.0000
    350 H         130.5539   99.9236  137.9347 H        24        0    0.0000
    351 H         127.9617  100.0189  139.5424 H        24        0    0.0000
    352 H         128.4777   97.7700  140.2966 H        24        0    0.0000
    353 H         128.3790   97.8520  138.5420 H        24        0    0.0000
    354 H         130.4577   99.5905  141.1424 H        24        0    0.0000
    355 H         129.0113  100.5244  141.4767 H        24        0    0.0000
    356 H         131.5341  101.2302  140.0238 H        24        0    0.0000
    357 H         129.4748  102.9984  141.3818 H        24        0    0.0000
    358 H         131.0072  102.4492  142.0492 H        24        0    0.0000
    359 C         133.3537  106.6616  142.1250 C.3      25        0    0.0000
    360 C         133.0339  105.7043  140.9871 C.3      25        0    0.0000
    361 C         131.9727  104.7873  141.5988 C.3      25        0    0.0000
    362 C         131.2115  103.9946  140.5333 C.3      25        0    0.0000
    363 C         131.1018  105.7425  142.4354 C.3      25        0    0.0000
    364 C         131.9777  106.9791  142.7240 C.3      25        0    0.0000
    365 C         131.9914  107.4497  144.1839 C.3      25        0    0.0000
    366 H         133.8628  107.5630  141.7697 H        25        0    0.0000
    367 H         134.0136  106.1663  142.8455 H        25        0    0.0000
    368 H         132.6328  106.2560  140.1282 H        25        0    0.0000
    369 H         133.9182  105.1509  140.6565 H        25        0    0.0000
    370 H         132.4744  104.0903  142.2856 H        25        0    0.0000
    371 H         130.4651  104.6341  140.0474 H        25        0    0.0000
    372 H         131.9102  103.6760  139.7506 H        25        0    0.0000
    373 H         130.2112  106.0583  141.8779 H        25        0    0.0000
    374 H         130.7469  105.2458  143.3445 H        25        0    0.0000
    375 H         131.5547  107.8071  142.1358 H        25        0    0.0000
    376 H         132.7191  106.8525  144.7460 H        25        0    0.0000
    377 H         131.0099  107.2511  144.6309 H        25        0    0.0000
    378 C         133.7288  110.2408  147.5573 C.3      26        0    0.0000
    379 C         133.3823  109.0048  146.7236 C.3      26        0    0.0000
    380 C         132.1889  109.3948  145.8332 C.3      26        0    0.0000
    381 C         132.3271  108.9574  144.3698 C.3      26        0    0.0000
    382 C         132.0840  110.9162  145.9800 C.3      26        0    0.0000
    383 C         132.5400  111.1976  147.4157 C.3      26        0    0.0000
    384 C         131.4264  110.9365  148.4476 C.3      26        0    0.0000
    385 H         133.9649  109.9802  148.5934 H        26        0    0.0000
    386 H         134.6236  110.7137  147.1328 H        26        0    0.0000
    387 H         134.2570  108.6846  146.1467 H        26        0    0.0000
    388 H         133.1020  108.1703  147.3769 H        26        0    0.0000
    389 H         131.2797  108.9474  146.2596 H        26        0    0.0000
    390 H         131.6413  109.5458  143.7486 H        26        0    0.0000
    391 H         133.3402  109.1598  144.0037 H        26        0    0.0000
    392 H         131.0712  111.2790  145.7767 H        26        0    0.0000
    393 H         132.7625  111.4156  145.2762 H        26        0    0.0000
    394 H         132.8768  112.2389  147.4974 H        26        0    0.0000
    395 H         131.4749  109.9114  148.8314 H        26        0    0.0000
    396 H         130.4487  111.0499  147.9645 H        26        0    0.0000
    397 C         131.4967  111.9359  149.6385 C.3      27        0    0.0000
    398 C         130.3406  111.7962  150.6392 C.3      27        0    0.0000
    399 H         132.4342  111.7294  150.1705 H        27        0    0.0000
    400 H         131.5722  112.9608  149.2568 H        27        0    0.0000
    401 H         129.3687  111.8285  150.1329 H        27        0    0.0000
    402 H         130.4160  110.8080  151.1108 H        27        0    0.0000
    403 C         132.4117  115.8350  150.6614 C.3      28        0    0.0000
    404 C         131.6837  114.5403  150.3336 C.3      28        0    0.0000
    405 C         131.5163  113.8668  151.7016 C.3      28        0    0.0000
    406 C         130.3687  112.8535  151.7968 C.3      28        0    0.0000
    407 C         131.4715  115.0161  152.7296 C.3      28        0    0.0000
    408 C         131.7064  116.3123  151.9325 C.3      28        0    0.0000
    409 C         132.5129  117.3820  152.6731 C.3      28        0    0.0000
    410 H         133.4740  115.6363  150.8490 H        28        0    0.0000
    411 H         132.3377  116.5637  149.8485 H        28        0    0.0000
    412 H         130.7204  114.7704  149.8657 H        28        0    0.0000
    413 H         132.2532  113.9163  149.6377 H        28        0    0.0000
    414 H         132.4419  113.3057  151.8987 H        28        0    0.0000
    415 H         130.4406  112.3236  152.7542 H        28        0    0.0000
    416 H         129.4143  113.3931  151.8075 H        28        0    0.0000
    417 H         132.2617  114.8596  153.4744 H        28        0    0.0000
    418 H         130.5248  115.0655  153.2777 H        28        0    0.0000
    419 H         130.7264  116.7230  151.6489 H        28        0    0.0000
    420 H         133.5541  117.0584  152.7883 H        28        0    0.0000
    421 H         132.5332  118.3000  152.0737 H        28        0    0.0000
    422 C         133.1449  121.1339  155.1866 C.3      29        0    0.0000
    423 C         133.3465  119.8518  154.3909 C.3      29        0    0.0000
    424 C         131.9608  119.1997  154.4368 C.3      29        0    0.0000
    425 C         131.9216  117.7125  154.0722 C.3      29        0    0.0000
    426 C         131.3887  119.5596  155.8219 C.3      29        0    0.0000
    427 C         132.3041  120.6671  156.3794 C.3      29        0    0.0000
    428 C         131.5959  121.7788  157.1597 C.3      29        0    0.0000
    429 H         134.0965  121.5737  155.5011 H        29        0    0.0000
    430 H         132.6159  121.8711  154.5727 H        29        0    0.0000
    431 H         133.6722  120.0539  153.3658 H        29        0    0.0000
    432 H         134.1098  119.2323  154.8745 H        29        0    0.0000
    433 H         131.3386  119.7202  153.6931 H        29        0    0.0000
    434 H         132.4721  117.1434  154.8307 H        29        0    0.0000
    435 H         130.8832  117.3621  154.1075 H        29        0    0.0000
    436 H         131.3799  118.7097  156.5128 H        29        0    0.0000
    437 H         130.3472  119.8816  155.7154 H        29        0    0.0000
    438 H         132.9943  120.1809  157.0853 H        29        0    0.0000
    439 H         132.2328  122.6712  157.1692 H        29        0    0.0000
    440 H         130.6745  122.0549  156.6335 H        29        0    0.0000
    441 C         130.1692  123.4861  161.5871 C.3      30        0    0.0000
    442 C         130.0507  122.2512  160.7069 C.3      30        0    0.0000
    443 C         130.8825  122.6251  159.4783 C.3      30        0    0.0000
    444 C         131.2394  121.4025  158.6292 C.3      30        0    0.0000
    445 C         132.0912  123.3742  160.0687 C.3      30        0    0.0000
    446 C         131.6462  123.8789  161.4568 C.3      30        0    0.0000
    447 C         131.9615  125.3503  161.7543 C.3      30        0    0.0000
    448 H         129.8919  123.2762  162.6249 H        30        0    0.0000
    449 H         129.4992  124.2679  161.2131 H        30        0    0.0000
    450 H         130.4721  121.3778  161.2194 H        30        0    0.0000
    451 H         129.0103  122.0293  160.4504 H        30        0    0.0000
    452 H         130.3014  123.3354  158.8722 H        30        0    0.0000
    453 H         132.0817  120.8630  159.0783 H        30        0    0.0000
    454 H         130.3907  120.7083  158.6189 H        30        0    0.0000
    455 H         132.9516  122.7047  160.1914 H        30        0    0.0000
    456 H         132.4102  124.1808  159.4003 H        30        0    0.0000
    457 H         132.2026  123.2870  162.1989 H        30        0    0.0000
    458 H         132.6164  125.7426  160.9672 H        30        0    0.0000
    459 H         132.5269  125.4104  162.6920 H        30        0    0.0000
    460 C         128.0005  126.9388  159.3067 C.3      31        0    0.0000
    461 C         128.5213  127.0624  160.7304 C.3      31        0    0.0000
    462 C         129.6428  126.0178  160.7940 C.3      31        0    0.0000
    463 C         130.7087  126.2654  161.8689 C.3      31        0    0.0000
    464 C         130.1747  125.8886  159.3518 C.3      31        0    0.0000
    465 C         129.2827  126.7953  158.4841 C.3      31        0    0.0000
    466 C         129.0080  126.2638  157.0752 C.3      31        0    0.0000
    467 H         127.3666  126.0489  159.2102 H        31        0    0.0000
    468 H         127.4128  127.8122  159.0082 H        31        0    0.0000
    469 H         128.8937  128.0790  160.8970 H        31        0    0.0000
    470 H         127.7385  126.8674  161.4702 H        31        0    0.0000
    471 H         129.1712  125.0551  161.0417 H        31        0    0.0000
    472 H         131.0323  127.3117  161.8146 H        31        0    0.0000
    473 H         130.2580  126.1272  162.8589 H        31        0    0.0000
    474 H         130.1006  124.8404  159.0367 H        31        0    0.0000
    475 H         131.2272  126.1750  159.2549 H        31        0    0.0000
    476 H         129.7607  127.7834  158.4164 H        31        0    0.0000
    477 H         128.0034  126.5581  156.7491 H        31        0    0.0000
    478 H         129.7137  126.7211  156.3715 H        31        0    0.0000
    479 C         129.1436  124.7179  156.9840 C.3      32        0    0.0000
    480 C         128.1480  124.0602  156.0178 C.3      32        0    0.0000
    481 H         130.1583  124.5098  156.6211 H        32        0    0.0000
    482 H         129.0739  124.2811  157.9871 H        32        0    0.0000
    483 H         127.7971  123.0953  156.4023 H        32        0    0.0000
    484 H         127.2654  124.7085  155.9449 H        32        0    0.0000
    485 C         129.3423  126.9480  152.6518 C.3      33        0    0.0000
    486 C         128.8983  126.3597  153.9902 C.3      33        0    0.0000
    487 C         129.6389  125.0208  154.1508 C.3      33        0    0.0000
    488 C         128.6986  123.8797  154.5608 C.3      33        0    0.0000
    489 C         130.3422  124.7988  152.8029 C.3      33        0    0.0000
    490 C         130.6274  126.2087  152.2703 C.3      33        0    0.0000
    491 C         131.8724  126.8749  152.8838 C.3      33        0    0.0000
    492 H         128.5700  126.7415  151.8998 H        33        0    0.0000
    493 H         129.4641  128.0346  152.7000 H        33        0    0.0000
    494 H         127.8086  126.2502  154.0166 H        33        0    0.0000
    495 H         129.1742  127.0331  154.8103 H        33        0    0.0000
    496 H         130.4048  125.1504  154.9286 H        33        0    0.0000
    497 H         129.2117  122.9146  154.4771 H        33        0    0.0000
    498 H         127.8472  123.8464  153.8704 H        33        0    0.0000
    499 H         131.2443  124.1879  152.9065 H        33        0    0.0000
    500 H         129.6725  124.2800  152.1048 H        33        0    0.0000
    501 H         130.7306  126.1866  151.1779 H        33        0    0.0000
    502 H         131.9829  126.6127  153.9415 H        33        0    0.0000
    503 H         131.7563  127.9647  152.8418 H        33        0    0.0000
    504 C         131.7304  123.2472  150.8633 C.3      34        0    0.0000
    505 C         131.9044  124.3071  151.9404 C.3      34        0    0.0000
    506 C         133.0678  125.1472  151.4097 C.3      34        0    0.0000
    507 C         133.1725  126.5003  152.1175 C.3      34        0    0.0000
    508 C         132.7979  125.2314  149.8961 C.3      34        0    0.0000
    509 C         131.8848  124.0354  149.5565 C.3      34        0    0.0000
    510 C         132.3115  123.2067  148.3382 C.3      34        0    0.0000
    511 H         130.7561  122.7530  150.9301 H        34        0    0.0000
    512 H         132.5036  122.4797  150.9768 H        34        0    0.0000
    513 H         130.9916  124.9082  152.0325 H        34        0    0.0000
    514 H         132.1243  123.8660  152.9174 H        34        0    0.0000
    515 H         133.9985  124.5812  151.5612 H        34        0    0.0000
    516 H         134.0162  126.4966  152.8178 H        34        0    0.0000
    517 H         133.3820  127.2814  151.3769 H        34        0    0.0000
    518 H         132.2780  126.1621  149.6370 H        34        0    0.0000
    519 H         133.7383  125.2269  149.3350 H        34        0    0.0000
    520 H         130.8964  124.4540  149.3152 H        34        0    0.0000
    521 H         133.2117  123.6529  147.8990 H        34        0    0.0000
    522 H         131.5268  123.2667  147.5746 H        34        0    0.0000
    523 C         132.7573  119.1473  145.8821 C.3      35        0    0.0000
    524 C         132.7566  119.5113  147.3692 C.3      35        0    0.0000
    525 C         133.2123  120.9739  147.4547 C.3      35        0    0.0000
    526 C         132.5921  121.7080  148.6468 C.3      35        0    0.0000
    527 C         132.8249  121.5400  146.0845 C.3      35        0    0.0000
    528 C         133.2134  120.4051  145.1311 C.3      35        0    0.0000
    529 C         132.5945  120.5053  143.7341 C.3      35        0    0.0000
    530 H         133.4250  118.3036  145.6769 H        35        0    0.0000
    531 H         131.7478  118.8435  145.5802 H        35        0    0.0000
    532 H         133.4240  118.8579  147.9414 H        35        0    0.0000
    533 H         131.7468  119.3811  147.7764 H        35        0    0.0000
    534 H         134.3085  120.9867  147.5423 H        35        0    0.0000
    535 H         133.2753  121.6501  149.5027 H        35        0    0.0000
    536 H         131.6604  121.2177  148.9525 H        35        0    0.0000
    537 H         133.3622  122.4664  145.8580 H        35        0    0.0000
    538 H         131.7481  121.7443  146.0339 H        35        0    0.0000
    539 H         134.3097  120.3762  145.0485 H        35        0    0.0000
    540 H         132.2861  121.5370  143.5279 H        35        0    0.0000
    541 H         131.6873  119.8905  143.6951 H        35        0    0.0000
    542 C         135.3880  123.1361  141.4227 C.3      36        0    0.0000
    543 C         134.2312  122.4856  142.1684 C.3      36        0    0.0000
    544 C         134.6747  121.0231  142.2783 C.3      36        0    0.0000
    545 C         133.5657  120.0238  142.6216 C.3      36        0    0.0000
    546 C         135.4492  120.7351  140.9772 C.3      36        0    0.0000
    547 C         135.7114  122.1099  140.3317 C.3      36        0    0.0000
    548 C         137.0778  122.2738  139.6593 C.3      36        0    0.0000
    549 H         135.1094  124.1079  141.0036 H        36        0    0.0000
    550 H         136.2298  123.2893  142.1069 H        36        0    0.0000
    551 H         134.0700  122.9413  143.1503 H        36        0    0.0000
    552 H         133.3088  122.5940  141.5874 H        36        0    0.0000
    553 H         135.4060  120.9724  143.0990 H        36        0    0.0000
    554 H         132.9854  119.8081  141.7166 H        36        0    0.0000
    555 H         134.0210  119.0775  142.9368 H        36        0    0.0000
    556 H         134.8889  120.1039  140.2791 H        36        0    0.0000
    557 H         136.3711  120.1925  141.2125 H        36        0    0.0000
    558 H         134.9568  122.2367  139.5409 H        36        0    0.0000
    559 H         137.8006  122.6349  140.4005 H        36        0    0.0000
    560 H         137.4331  121.2918  139.3253 H        36        0    0.0000
    561 C         135.4038  122.4855  135.2204 C.3      37        0    0.0000
    562 C         135.5439  122.1233  136.7010 C.3      37        0    0.0000
    563 C         136.9807  122.4934  137.1106 C.3      37        0    0.0000
    564 C         137.0801  123.2473  138.4425 C.3      37        0    0.0000
    565 C         137.5135  123.3163  135.9332 C.3      37        0    0.0000
    566 C         136.8272  122.7165  134.7014 C.3      37        0    0.0000
    567 C         137.5125  121.4243  134.2179 C.3      37        0    0.0000
    568 H         134.8496  121.7227  134.6651 H        37        0    0.0000
    569 H         134.8347  123.4203  135.1378 H        37        0    0.0000
    570 H         134.7845  122.6502  137.2892 H        37        0    0.0000
    571 H         135.3800  121.0494  136.8482 H        37        0    0.0000
    572 H         137.5704  121.5677  137.1745 H        37        0    0.0000
    573 H         138.0103  123.8275  138.4628 H        37        0    0.0000
    574 H         136.2565  123.9640  138.5392 H        37        0    0.0000
    575 H         138.6060  123.2822  135.8702 H        37        0    0.0000
    576 H         137.2203  124.3688  136.0391 H        37        0    0.0000
    577 H         136.8216  123.4532  133.8880 H        37        0    0.0000
    578 H         136.7736  120.6690  133.9281 H        37        0    0.0000
    579 H         138.1011  120.9959  135.0378 H        37        0    0.0000
    580 C         136.8654  124.2052  130.6859 C.3      38        0    0.0000
    581 C         136.9087  123.5102  132.0382 C.3      38        0    0.0000
    582 C         137.7876  122.2796  131.7808 C.3      38        0    0.0000
    583 C         138.4714  121.6919  133.0218 C.3      38        0    0.0000
    584 C         138.7341  122.6766  130.6292 C.3      38        0    0.0000
    585 C         138.3106  124.0921  130.1961 C.3      38        0    0.0000
    586 C         138.4344  124.3663  128.6953 C.3      38        0    0.0000
    587 H         136.1768  123.6816  130.0116 H        38        0    0.0000
    588 H         136.5374  125.2458  130.7704 H        38        0    0.0000
    589 H         137.3481  124.1835  132.7820 H        38        0    0.0000
    590 H         135.9090  123.2328  132.3871 H        38        0    0.0000
    591 H         137.1289  121.4910  131.3877 H        38        0    0.0000
    592 H         138.9598  120.7496  132.7461 H        38        0    0.0000
    593 H         139.2656  122.3730  133.3496 H        38        0    0.0000
    594 H         138.6172  121.9587  129.8078 H        38        0    0.0000
    595 H         139.7907  122.6601  130.9164 H        38        0    0.0000
    596 H         138.9207  124.8181  130.7530 H        38        0    0.0000
    597 H         137.4396  124.4771  128.2477 H        38        0    0.0000
    598 H         138.9558  125.3188  128.5428 H        38        0    0.0000
    599 C         138.4993  123.4838  124.2208 C.3      39        0    0.0000
    600 C         138.0708  123.6999  125.6655 C.3      39        0    0.0000
    601 C         139.3743  123.4915  126.4434 C.3      39        0    0.0000
    602 C         139.2110  123.2469  127.9466 C.3      39        0    0.0000
    603 C         140.1371  122.3973  125.6712 C.3      39        0    0.0000
    604 C         139.4164  122.2600  124.3158 C.3      39        0    0.0000
    605 C         140.3252  122.0239  123.1056 C.3      39        0    0.0000
    606 H         137.6432  123.3060  123.5627 H        39        0    0.0000
    607 H         139.0307  124.3697  123.8560 H        39        0    0.0000
    608 H         137.6532  124.6991  125.8229 H        39        0    0.0000
    609 H         137.3059  122.9645  125.9385 H        39        0    0.0000
    610 H         139.9594  124.4178  126.3393 H        39        0    0.0000
    611 H         138.6904  122.2942  128.0999 H        39        0    0.0000
    612 H         140.2026  123.1410  128.4023 H        39        0    0.0000
    613 H         140.1336  121.4311  126.1871 H        39        0    0.0000
    614 H         141.1881  122.6879  125.5670 H        39        0    0.0000
    615 H         138.7635  121.3775  124.3931 H        39        0    0.0000
    616 H         141.0796  122.8184  123.0641 H        39        0    0.0000
    617 H         140.8678  121.0811  123.2433 H        39        0    0.0000
    618 C         140.9107  122.8058  118.3800 C.3      40        0    0.0000
    619 C         139.9096  121.9715  119.1829 C.3      40        0    0.0000
    620 C         140.5376  121.7450  120.5697 C.3      40        0    0.0000
    621 C         139.5745  121.9746  121.7410 C.3      40        0    0.0000
    622 C         141.7375  122.6970  120.6058 C.3      40        0    0.0000
    623 C         142.2311  122.7505  119.1560 C.3      40        0    0.0000
    624 C         143.1002  121.5336  118.7860 C.3      40        0    0.0000
    625 H         140.9918  122.4600  117.3451 H        40        0    0.0000
    626 H         140.5572  123.8444  118.3452 H        40        0    0.0000
    627 H         138.9449  122.4885  119.2318 H        40        0    0.0000
    628 H         139.7357  121.0072  118.6912 H        40        0    0.0000
    629 H         140.9183  120.7145  120.6119 H        40        0    0.0000
    630 H         139.0494  122.9267  121.5981 H        40        0    0.0000
    631 H         138.8091  121.1905  121.7667 H        40        0    0.0000
    632 H         142.5086  122.3585  121.3053 H        40        0    0.0000
    633 H         141.4204  123.6994  120.9215 H        40        0    0.0000
    634 H         142.8058  123.6717  118.9968 H        40        0    0.0000
    635 H         142.8965  120.6855  119.4491 H        40        0    0.0000
    636 H         144.1587  121.7903  118.9130 H        40        0    0.0000
    637 C         145.9476  121.7805  115.3320 C.3      41        0    0.0000
    638 C         145.2106  121.9954  116.6562 C.3      41        0    0.0000
    639 C         143.7059  121.9481  116.3352 C.3      41        0    0.0000
    640 C         142.8821  121.0960  117.3086 C.3      41        0    0.0000
    641 C         143.6384  121.4218  114.8980 C.3      41        0    0.0000
    642 C         144.9026  121.9692  114.2269 C.3      41        0    0.0000
    643 C         144.7455  123.4370  113.7865 C.3      41        0    0.0000
    644 H         146.8151  122.4405  115.2369 H        41        0    0.0000
    645 H         146.3228  120.7495  115.3000 H        41        0    0.0000
    646 H         145.5150  121.2337  117.3825 H        41        0    0.0000
    647 H         145.4695  122.9715  117.0828 H        41        0    0.0000
    648 H         143.3196  122.9774  116.3402 H        41        0    0.0000
    649 H         141.8170  121.1984  117.0689 H        41        0    0.0000
    650 H         143.1327  120.0349  117.1951 H        41        0    0.0000
    651 H         142.7192  121.7320  114.3905 H        41        0    0.0000
    652 H         143.6666  120.3244  114.8913 H        41        0    0.0000
    653 H         145.1535  121.3513  113.3554 H        41        0    0.0000
    654 H         145.6920  123.9811  113.8781 H        41        0    0.0000
    655 H         144.0247  123.9387  114.4431 H        41        0    0.0000
    656 C         142.9306  120.1680  112.9265 C.3      42        0    0.0000
    657 C         142.7469  121.6607  113.1959 C.3      42        0    0.0000
    658 C         143.2770  122.4012  111.9558 C.3      42        0    0.0000
    659 C         144.2269  123.5487  112.3235 C.3      42        0    0.0000
    660 C         143.9227  121.3061  111.0928 C.3      42        0    0.0000
    661 C         143.1307  120.0325  111.4148 C.3      42        0    0.0000
    662 C         141.7883  119.9191  110.6695 C.3      42        0    0.0000
    663 H         143.8354  119.8229  113.4430 H        42        0    0.0000
    664 H         142.0941  119.5747  113.3089 H        42        0    0.0000
    665 H         143.2635  121.9488  114.1179 H        42        0    0.0000
    666 H         141.6845  121.8925  113.3362 H        42        0    0.0000
    667 H         142.4135  122.8112  111.4134 H        42        0    0.0000
    668 H         143.7298  124.5152  112.1809 H        42        0    0.0000
    669 H         145.0906  123.5343  111.6479 H        42        0    0.0000
    670 H         143.9109  121.5619  110.0288 H        42        0    0.0000
    671 H         144.9710  121.1602  111.3841 H        42        0    0.0000
    672 H         143.7392  119.1445  111.2007 H        42        0    0.0000
    673 H         141.1291  120.7606  110.9078 H        42        0    0.0000
    674 H         141.2685  119.0111  110.9985 H        42        0    0.0000
    675 C         141.9814  119.8307  109.1291 C.3      43        0    0.0000
    676 C         142.0802  121.1959  108.4334 C.3      43        0    0.0000
    677 H         142.9225  119.2926  108.9581 H        43        0    0.0000
    678 H         141.1854  119.2168  108.6916 H        43        0    0.0000
    679 H         141.5888  121.1808  107.4535 H        43        0    0.0000
    680 H         141.5388  121.9294  109.0446 H        43        0    0.0000
    681 C         145.3758  118.6179  107.0876 C.3      44        0    0.0000
    682 C         144.0963  119.3087  107.5381 C.3      44        0    0.0000
    683 C         144.4793  120.7919  107.5062 C.3      44        0    0.0000
    684 C         143.5470  121.7285  108.2807 C.3      44        0    0.0000
    685 C         145.9625  120.8370  107.9230 C.3      44        0    0.0000
    686 C         146.4632  119.3812  107.8509 C.3      44        0    0.0000
    687 C         147.8891  119.1987  107.3218 C.3      44        0    0.0000
    688 H         145.3728  117.5513  107.3329 H        44        0    0.0000
    689 H         145.4874  118.7170  106.0022 H        44        0    0.0000
    690 H         143.2559  119.0866  106.8731 H        44        0    0.0000
    691 H         143.8301  118.9734  108.5465 H        44        0    0.0000
    692 H         144.4372  121.1096  106.4535 H        44        0    0.0000
    693 H         143.9641  121.9032  109.2796 H        44        0    0.0000
    694 H         143.5177  122.7020  107.7770 H        44        0    0.0000
    695 H         146.1082  121.2244  108.9371 H        44        0    0.0000
    696 H         146.5104  121.5093  107.2540 H        44        0    0.0000
    697 H         146.4605  118.9948  108.8813 H        44        0    0.0000
    698 H         148.5399  118.8863  108.1470 H        44        0    0.0000
    699 H         147.8976  118.3839  106.5881 H        44        0    0.0000
    700 C         149.3459  119.1471  103.2342 C.3      45        0    0.0000
    701 C         148.9088  118.9227  104.6841 C.3      45        0    0.0000
    702 C         149.4060  120.1387  105.4769 C.3      45        0    0.0000
    703 C         148.4951  120.4733  106.6613 C.3      45        0    0.0000
    704 C         149.4967  121.2359  104.4112 C.3      45        0    0.0000
    705 C         150.0891  120.4893  103.2113 C.3      45        0    0.0000
    706 C         149.9393  121.2147  101.8712 C.3      45        0    0.0000
    707 H         149.9904  118.3353  102.8803 H        45        0    0.0000
    708 H         148.4621  119.1667  102.5854 H        45        0    0.0000
    709 H         149.3248  117.9936  105.0883 H        45        0    0.0000
    710 H         147.8165  118.8352  104.7267 H        45        0    0.0000
    711 H         150.4201  119.9188  105.8412 H        45        0    0.0000
    712 H         147.6729  121.1118  106.3165 H        45        0    0.0000
    713 H         149.0466  121.0477  107.4148 H        45        0    0.0000
    714 H         150.1343  122.0658  104.7318 H        45        0    0.0000
    715 H         148.5030  121.6358  104.1735 H        45        0    0.0000
    716 H         151.1532  120.2951  103.4096 H        45        0    0.0000
    717 H         149.8642  122.2967  102.0307 H        45        0    0.0000
    718 H         149.0044  120.9002  101.3919 H        45        0    0.0000
    719 C         152.1764  117.4246   99.8813 C.3      46        0    0.0000
    720 C         151.1019  118.4976   99.9697 C.3      46        0    0.0000
    721 C         151.6668  119.4868  100.9970 C.3      46        0    0.0000
    722 C         151.1161  120.9154  100.9024 C.3      46        0    0.0000
    723 C         153.2010  119.3610  100.8973 C.3      46        0    0.0000
    724 C         153.4729  118.2372   99.8806 C.3      46        0    0.0000
    725 C         154.6962  117.3723  100.1942 C.3      46        0    0.0000
    726 H         152.1246  116.7626  100.7543 H        46        0    0.0000
    727 H         152.0710  116.8126   98.9803 H        46        0    0.0000
    728 H         150.9627  118.9582   98.9857 H        46        0    0.0000
    729 H         150.1383  118.0857  100.2858 H        46        0    0.0000
    730 H         151.3854  119.1119  101.9924 H        46        0    0.0000
    731 H         151.9277  121.6238  101.1070 H        46        0    0.0000
    732 H         150.7858  121.1047   99.8742 H        46        0    0.0000
    733 H         153.6032  119.1074  101.8861 H        46        0    0.0000
    734 H         153.6889  120.2905  100.5857 H        46        0    0.0000
    735 H         153.5920  118.6945   98.8875 H        46        0    0.0000
    736 H         154.9428  117.4384  101.2605 H        46        0    0.0000
    737 H         154.4586  116.3213   99.9909 H        46        0    0.0000
    738 C         156.3295  116.7920   95.7038 C.3      47        0    0.0000
    739 C         156.2854  116.4135   97.1777 C.3      47        0    0.0000
    740 C         155.7358  117.6813   97.8398 C.3      47        0    0.0000
    741 C         155.9414  117.7738   99.3548 C.3      47        0    0.0000
    742 C         156.3127  118.8508   97.0183 C.3      47        0    0.0000
    743 C         156.8853  118.2195   95.7341 C.3      47        0    0.0000
    744 C         156.6816  119.0317   94.4515 C.3      47        0    0.0000
    745 H         156.9666  116.1147   95.1267 H        47        0    0.0000
    746 H         155.3195  116.7518   95.2812 H        47        0    0.0000
    747 H         155.6446  115.5447   97.3577 H        47        0    0.0000
    748 H         157.2946  116.1702   97.5276 H        47        0    0.0000
    749 H         154.6483  117.6832   97.6714 H        47        0    0.0000
    750 H         156.7820  117.1309   99.6419 H        47        0    0.0000
    751 H         156.2262  118.7999   99.6159 H        47        0    0.0000
    752 H         157.1062  119.3910   97.5458 H        47        0    0.0000
    753 H         155.5222  119.5819   96.8173 H        47        0    0.0000
    754 H         157.9726  118.1353   95.8812 H        47        0    0.0000
    755 H         155.6068  119.1535   94.2718 H        47        0    0.0000
    756 H         157.0929  120.0378   94.5952 H        47        0    0.0000
    757 C         159.8689  120.7940   91.7027 C.3      48        0    0.0000
    758 C         159.0018  120.3593   92.8743 C.3      48        0    0.0000
    759 C         157.9771  119.4161   92.2313 C.3      48        0    0.0000
    760 C         157.3328  118.4011   93.1840 C.3      48        0    0.0000
    761 C         158.6817  118.8123   90.9990 C.3      48        0    0.0000
    762 C         160.0593  119.4951   90.9167 C.3      48        0    0.0000
    763 C         160.5635  119.7500   89.4941 C.3      48        0    0.0000
    764 H         159.3453  121.5473   91.1016 H        48        0    0.0000
    765 H         160.8207  121.2207   92.0336 H        48        0    0.0000
    766 H         159.6220  119.8495   93.6194 H        48        0    0.0000
    767 H         158.5213  121.2114   93.3652 H        48        0    0.0000
    768 H         157.1587  120.0439   91.8483 H        48        0    0.0000
    769 H         156.5658  117.8384   92.6386 H        48        0    0.0000
    770 H         158.0908  117.6743   93.4992 H        48        0    0.0000
    771 H         158.0806  119.0226   90.1056 H        48        0    0.0000
    772 H         158.7924  117.7244   91.0575 H        48        0    0.0000
    773 H         160.7851  118.8694   91.4563 H        48        0    0.0000
    774 H         161.6139  120.0637   89.5156 H        48        0    0.0000
    775 H         160.5262  118.8145   88.9234 H        48        0    0.0000
    776 C         158.9117  122.2069   85.8824 C.3      49        0    0.0000
    777 C         159.9116  121.1012   86.2312 C.3      49        0    0.0000
    778 C         160.5126  121.4690   87.5922 C.3      49        0    0.0000
    779 C         159.7236  120.8239   88.7472 C.3      49        0    0.0000
    780 C         160.4580  123.0017   87.5638 C.3      49        0    0.0000
    781 C         159.1049  123.3219   86.9236 C.3      49        0    0.0000
    782 C         159.0528  124.7424   86.3499 C.3      49        0    0.0000
    783 H         159.0878  122.5554   84.8584 H        49        0    0.0000
    784 H         157.8851  121.8251   85.9231 H        49        0    0.0000
    785 H         160.7066  121.0922   85.4748 H        49        0    0.0000
    786 H         159.4464  120.1103   86.2182 H        49        0    0.0000
    787 H         161.5558  121.1314   87.6416 H        49        0    0.0000
    788 H         158.8262  120.3393   88.3440 H        49        0    0.0000
    789 H         159.3769  121.5783   89.4615 H        49        0    0.0000
    790 H         161.2750  123.3828   86.9371 H        49        0    0.0000
    791 H         160.5609  123.4619   88.5511 H        49        0    0.0000
    792 H         158.3250  123.2177   87.6910 H        49        0    0.0000
    793 H         158.8150  125.4642   87.1400 H        49        0    0.0000
    794 H         158.2478  124.8062   85.6082 H        49        0    0.0000
    795 C         160.3932  125.1405   85.6679 C.3      50        0    0.0000
    796 C         160.3358  125.1429   84.1336 C.3      50        0    0.0000
    797 H         160.6279  126.1595   86.0014 H        50        0    0.0000
    798 H         161.2005  124.4965   86.0359 H        50        0    0.0000
    799 H         159.4844  124.5587   83.7654 H        50        0    0.0000
    800 H         160.1748  126.1762   83.8006 H        50        0    0.0000
    801 C         162.1362  126.5106   80.1835 C.3      51        0    0.0000
    802 C         161.4403  126.3771   81.5294 C.3      51        0    0.0000
    803 C         161.7286  124.9275   81.9400 C.3      51        0    0.0000
    804 C         161.6545  124.6460   83.4460 C.3      51        0    0.0000
    805 C         163.0652  124.5603   81.2629 C.3      51        0    0.0000
    806 C         163.4608  125.7785   80.4085 C.3      51        0    0.0000
    807 C         164.1620  125.4364   79.0917 C.3      51        0    0.0000
    808 H         161.5432  126.0240   79.3996 H        51        0    0.0000
    809 H         162.2845  127.5573   79.9011 H        51        0    0.0000
    810 H         161.8661  127.0988   82.2349 H        51        0    0.0000
    811 H         160.3663  126.5752   81.4555 H        51        0    0.0000
    812 H         160.9562  124.3008   81.4696 H        51        0    0.0000
    813 H         161.7510  123.5663   83.6113 H        51        0    0.0000
    814 H         162.5119  125.1173   83.9411 H        51        0    0.0000
    815 H         162.9165  123.6698   80.6395 H        51        0    0.0000
    816 H         163.8569  124.3170   81.9792 H        51        0    0.0000
    817 H         164.1128  126.4249   81.0139 H        51        0    0.0000
    818 H         164.8483  126.2431   78.8079 H        51        0    0.0000
    819 H         164.7738  124.5370   79.2300 H        51        0    0.0000
    820 C         162.9231  122.0750   76.9036 C.3      52        0    0.0000
    821 C         164.1365  122.9442   77.2448 C.3      52        0    0.0000
    822 C         163.7961  124.3676   76.7899 C.3      52        0    0.0000
    823 C         163.1599  125.1845   77.9303 C.3      52        0    0.0000
    824 C         162.8660  124.1099   75.5975 C.3      52        0    0.0000
    825 C         161.9845  122.9426   76.0487 C.3      52        0    0.0000
    826 C         161.3407  122.2076   74.8676 C.3      52        0    0.0000
    827 H         163.2516  121.1709   76.3784 H        52        0    0.0000
    828 H         162.4116  121.7515   77.8174 H        52        0    0.0000
    829 H         165.0027  122.5802   76.6777 H        52        0    0.0000
    830 H         164.3992  122.8812   78.3057 H        52        0    0.0000
    831 H         164.7072  124.8778   76.4518 H        52        0    0.0000
    832 H         162.3001  124.6343   78.3313 H        52        0    0.0000
    833 H         162.7749  126.1428   77.5657 H        52        0    0.0000
    834 H         163.4657  123.8186   74.7253 H        52        0    0.0000
    835 H         162.2714  124.9820   75.3096 H        52        0    0.0000
    836 H         161.1913  123.3381   76.6985 H        52        0    0.0000
    837 H         160.3476  122.6211   74.6567 H        52        0    0.0000
    838 H         161.1967  121.1528   75.1300 H        52        0    0.0000
    839 C         162.2204  122.2882   73.5870 C.3      53        0    0.0000
    840 C         162.6494  120.9202   73.0377 C.3      53        0    0.0000
    841 H         163.1262  122.8449   73.8595 H        53        0    0.0000
    842 H         161.7059  122.8817   72.8222 H        53        0    0.0000
    843 H         162.8886  120.2709   73.8897 H        53        0    0.0000
    844 H         161.8309  120.4343   72.4936 H        53        0    0.0000
    845 C         165.0951  124.4370   71.2090 C.3      54        0    0.0000
    846 C         164.6835  123.3926   72.2353 C.3      54        0    0.0000
    847 C         164.0607  122.2922   71.3737 C.3      54        0    0.0000
    848 C         163.9292  120.9697   72.1331 C.3      54        0    0.0000
    849 C         164.9742  122.2358   70.1356 C.3      54        0    0.0000
    850 C         165.6860  123.6025   70.0655 C.3      54        0    0.0000
    851 C         165.6779  124.2790   68.6888 C.3      54        0    0.0000
    852 H         165.8231  125.1456   71.6164 H        54        0    0.0000
    853 H         164.2144  125.0063   70.8926 H        54        0    0.0000
    854 H         165.5640  123.0225   72.7746 H        54        0    0.0000
    855 H         163.9769  123.7944   72.9679 H        54        0    0.0000
    856 H         163.0653  122.6300   71.0505 H        54        0    0.0000
    857 H         163.9062  120.1298   71.4286 H        54        0    0.0000
    858 H         164.8132  120.8256   72.7657 H        54        0    0.0000
    859 H         165.7285  121.4453   70.2347 H        54        0    0.0000
    860 H         164.3926  122.0077   69.2362 H        54        0    0.0000
    861 H         166.7420  123.4192   70.3141 H        54        0    0.0000
    862 H         166.6598  124.7315   68.5062 H        54        0    0.0000
    863 H         164.9511  125.0999   68.7001 H        54        0    0.0000
    864 C         162.4431  121.1283   68.5816 C.3      55        0    0.0000
    865 C         163.3397  122.3320   68.8279 C.3      55        0    0.0000
    866 C         164.5420  122.0772   67.9100 C.3      55        0    0.0000
    867 C         165.3352  123.3268   67.5071 C.3      55        0    0.0000
    868 C         164.0010  121.2307   66.7393 C.3      55        0    0.0000
    869 C         162.5233  120.9459   67.0646 C.3      55        0    0.0000
    870 C         162.0244  119.5682   66.6218 C.3      55        0    0.0000
    871 H         162.8349  120.2490   69.1073 H        55        0    0.0000
    872 H         161.4185  121.3039   68.9237 H        55        0    0.0000
    873 H         162.8032  123.2489   68.5610 H        55        0    0.0000
    874 H         163.6370  122.4119   69.8783 H        55        0    0.0000
    875 H         165.2399  121.4336   68.4661 H        55        0    0.0000
    876 H         166.2696  123.0151   67.0253 H        55        0    0.0000
    877 H         164.7655  123.8857   66.7552 H        55        0    0.0000
    878 H         164.5794  120.3007   66.6744 H        55        0    0.0000
    879 H         164.0940  121.7300   65.7692 H        55        0    0.0000
    880 H         161.9111  121.7271   66.5910 H        55        0    0.0000
    881 H         162.8061  118.8151   66.7765 H        55        0    0.0000
    882 H         161.1742  119.2723   67.2479 H        55        0    0.0000
    883 C         161.5791  119.5455   65.1326 C.3      56        0    0.0000
    884 C         160.1582  119.0063   64.9144 C.3      56        0    0.0000
    885 H         162.2785  118.8861   64.6028 H        56        0    0.0000
    886 H         161.6982  120.5441   64.6961 H        56        0    0.0000
    887 H         160.2226  118.1369   64.2477 H        56        0    0.0000
    888 H         159.7184  118.6495   65.8532 H        56        0    0.0000
    889 C         159.3160  120.5311   60.5563 C.3      57        0    0.0000
    890 C         159.8036  119.7027   61.7475 C.3      57        0    0.0000
    891 C         159.8020  120.6419   62.9669 C.3      57        0    0.0000
    892 C         159.1864  120.0297   64.2311 C.3      57        0    0.0000
    893 C         159.0426  121.8845   62.4910 C.3      57        0    0.0000
    894 C         159.3814  121.9964   61.0007 C.3      57        0    0.0000
    895 C         160.7590  122.6417   60.7581 C.3      57        0    0.0000
    896 H         159.8906  120.3185   59.6498 H        57        0    0.0000
    897 H         158.2722  120.2656   60.3450 H        57        0    0.0000
    898 H         159.1593  118.8271   61.8838 H        57        0    0.0000
    899 H         160.8190  119.3323   61.5644 H        57        0    0.0000
    900 H         160.8403  120.9362   63.1769 H        57        0    0.0000
    901 H         158.9610  120.8278   64.9484 H        57        0    0.0000
    902 H         158.2360  119.5376   63.9944 H        57        0    0.0000
    903 H         159.3216  122.7781   63.0587 H        57        0    0.0000
    904 H         157.9610  121.7401   62.6104 H        57        0    0.0000
    905 H         158.6077  122.5844   60.4906 H        57        0    0.0000
    906 H         161.5610  121.8980   60.8212 H        57        0    0.0000
    907 H         160.9539  123.3873   61.5381 H        57        0    0.0000
    908 C         160.8270  123.3564   59.3773 C.3      58        0    0.0000
    909 C         161.5438  122.5443   58.2892 C.3      58        0    0.0000
    910 H         159.7910  123.5194   59.0536 H        58        0    0.0000
    911 H         161.2778  124.3485   59.4967 H        58        0    0.0000
    912 H         162.6165  122.7697   58.2647 H        58        0    0.0000
    913 H         161.4525  121.4803   58.5427 H        58        0    0.0000
    914 C         158.4933  122.6039   59.0488 C.3      59        0    0.0000
    915 C         159.0397  121.5543   58.0772 C.3      59        0    0.0000
    916 C         159.4512  122.3069   56.8071 C.3      59        0    0.0000
    917 C         160.9337  122.7219   56.8557 C.3      59        0    0.0000
    918 C         158.4631  123.4802   56.7947 C.3      59        0    0.0000
    919 C         158.3746  123.9179   58.2589 C.3      59        0    0.0000
    920 C         157.1027  124.7219   58.5513 C.3      59        0    0.0000
    921 H         157.5307  122.2694   59.4518 H        59        0    0.0000
    922 H         159.1734  122.7335   59.8985 H        59        0    0.0000
    923 H         158.2376  120.8458   57.8345 H        59        0    0.0000
    924 H         159.8563  120.9741   58.5189 H        59        0    0.0000
    925 H         159.2885  121.6698   55.9282 H        59        0    0.0000
    926 H         161.0217  123.7779   56.5730 H        59        0    0.0000
    927 H         161.5291  122.1545   56.1325 H        59        0    0.0000
    928 H         157.4846  123.1274   56.4433 H        59        0    0.0000
    929 H         158.7684  124.3028   56.1411 H        59        0    0.0000
    930 H         159.2511  124.5400   58.4883 H        59        0    0.0000
    931 H         157.3506  125.6475   59.0837 H        59        0    0.0000
    932 H         156.4484  124.1406   59.2117 H        59        0    0.0000
    933 C         157.4347  122.6060   54.5898 C.3      60        0    0.0000
    934 C         157.4276  123.0539   56.0433 C.3      60        0    0.0000
    935 C         156.9573  124.5120   55.9669 C.3      60        0    0.0000
    936 C         156.3223  125.0637   57.2496 C.3      60        0    0.0000
    937 C         156.0786  124.6010   54.7021 C.3      60        0    0.0000
    938 C         156.1436  123.2136   54.0376 C.3      60        0    0.0000
    939 C         156.1243  123.2352   52.5072 C.3      60        0    0.0000
    940 H         158.3143  123.0084   54.0727 H        60        0    0.0000
    941 H         157.4516  121.5157   54.4972 H        60        0    0.0000
    942 H         156.7365  122.4264   56.6164 H        60        0    0.0000
    943 H         158.4174  122.9672   56.5024 H        60        0    0.0000
    944 H         157.8486  125.1272   55.7734 H        60        0    0.0000
    945 H         156.2405  126.1539   57.1656 H        60        0    0.0000
    946 H         155.2997  124.6780   57.3377 H        60        0    0.0000
    947 H         156.4831  125.3772   54.0405 H        60        0    0.0000
    948 H         155.0414  124.8779   54.9182 H        60        0    0.0000
    949 H         155.2968  122.6166   54.4066 H        60        0    0.0000
    950 H         156.8182  122.4852   52.1096 H        60        0    0.0000
    951 H         155.1243  122.9574   52.1535 H        60        0    0.0000
    952 C         156.3764  128.0119   53.5922 C.3      61        0    0.0000
    953 C         156.8601  127.0899   52.4699 C.3      61        0    0.0000
    954 C         156.7774  125.6604   53.0212 C.3      61        0    0.0000
    955 C         156.4896  124.6299   51.9259 C.3      61        0    0.0000
    956 C         155.6940  125.7653   54.0997 C.3      61        0    0.0000
    957 C         156.0216  127.1012   54.7750 C.3      61        0    0.0000
    958 C         154.8918  127.6761   55.6338 C.3      61        0    0.0000
    959 H         157.1465  128.7384   53.8732 H        61        0    0.0000
    960 H         155.5042  128.5801   53.2475 H        61        0    0.0000
    961 H         157.8831  127.3342   52.1641 H        61        0    0.0000
    962 H         156.2185  127.2184   51.5899 H        61        0    0.0000
    963 H         157.7351  125.4249   53.5079 H        61        0    0.0000
    964 H         157.3759  124.5211   51.2894 H        61        0    0.0000
    965 H         155.6768  124.9797   51.2787 H        61        0    0.0000
    966 H         155.7366  124.9292   54.8050 H        61        0    0.0000
    967 H         154.6931  125.7872   53.6505 H        61        0    0.0000
    968 H         156.9240  126.9713   55.3901 H        61        0    0.0000
    969 H         154.4014  128.5057   55.1112 H        61        0    0.0000
    970 H         155.3138  128.0897   56.5575 H        61        0    0.0000
    971 C         153.8325  126.6045   56.0112 C.3      62        0    0.0000
    972 C         152.7136  126.4405   54.9727 C.3      62        0    0.0000
    973 H         154.3645  125.6480   56.0924 H        62        0    0.0000
    974 H         153.4251  126.8219   57.0055 H        62        0    0.0000
    975 H         151.7966  126.0530   55.4321 H        62        0    0.0000
    976 H         152.4697  127.4340   54.5752 H        62        0    0.0000
    977 C         154.8481  122.3171   53.6189 C.3      63        0    0.0000
    978 C         154.6217  123.6023   54.4136 C.3      63        0    0.0000
    979 C         153.1835  124.0588   54.1134 C.3      63        0    0.0000
    980 C         153.1085  125.5468   53.7463 C.3      63        0    0.0000
    981 C         152.6972  123.1148   53.0030 C.3      63        0    0.0000
    982 C         153.4567  121.8033   53.2402 C.3      63        0    0.0000
    983 C         152.8551  120.9173   54.3463 C.3      63        0    0.0000
    984 H         155.4051  122.5588   52.7046 H        63        0    0.0000
    985 H         155.4437  121.5877   54.1768 H        63        0    0.0000
    986 H         155.3724  124.3540   54.1461 H        63        0    0.0000
    987 H         154.7292  123.4078   55.4873 H        63        0    0.0000
    988 H         152.5787  123.8815   55.0140 H        63        0    0.0000
    989 H         152.3929  125.7022   52.9307 H        63        0    0.0000
    990 H         154.0864  125.8782   53.3768 H        63        0    0.0000
    991 H         151.6101  122.9903   53.0171 H        63        0    0.0000
    992 H         152.9696  123.5140   52.0173 H        63        0    0.0000
    993 H         153.5166  121.2271   52.3081 H        63        0    0.0000
    994 H         152.6531  121.4966   55.2536 H        63        0    0.0000
    995 H         153.5814  120.1437   54.6239 H        63        0    0.0000
    996 H         151.9414  120.4201   54.0209 H        63        0    0.0000
    997 H         129.4481   56.1107  180.3043 H         0        0    0.0000
@<TRIPOS>BOND
     1     1     2      1
     2     1     6      1
     3     1     8      1
     4     1     9      1
     5     2     3      1
     6     2    10      1
     7     2    11      1
     8     3     4      1
     9     3     5      1
    10     3    12      1
    11     4    13      1
    12     4    14      1
    13     4   997      H
    14     5     6      1
    15     5    15      1
    16     5    16      1
    17     6     7      1
    18     6    17      1
    19     7    18      1
    20     7    19      1
    21     7    23      1
    22    20    21      1
    23    20    25      1
    24    20    27      1
    25    20    28      1
    26    21    22      1
    27    21    29      1
    28    21    30      1
    29    22    23      1
    30    22    24      1
    31    22    31      1
    32    23    32      1
    33    23    33      1
    34    24    25      1
    35    24    34      1
    36    24    35      1
    37    25    26      1
    38    25    36      1
    39    26    37      1
    40    26    38      1
    41    26    39      1
    42    39    40      1
    43    39    41      1
    44    39    42      1
    45    40    43      1
    46    40    44      1
    47    40    48      1
    48    45    46      1
    49    45    50      1
    50    45    52      1
    51    45    53      1
    52    46    47      1
    53    46    54      1
    54    46    55      1
    55    47    48      1
    56    47    49      1
    57    47    56      1
    58    48    57      1
    59    48    58      1
    60    49    50      1
    61    49    59      1
    62    49    60      1
    63    50    51      1
    64    50    61      1
    65    51    62      1
    66    51    63      1
    67    51    64      1
    68    64    65      1
    69    64    66      1
    70    64    67      1
    71    65    68      1
    72    65    69      1
    73    65    73      1
    74    70    71      1
    75    70    75      1
    76    70    77      1
    77    70    78      1
    78    71    72      1
    79    71    79      1
    80    71    80      1
    81    72    73      1
    82    72    74      1
    83    72    81      1
    84    73    82      1
    85    73    83      1
    86    74    75      1
    87    74    84      1
    88    74    85      1
    89    75    76      1
    90    75    86      1
    91    76    87      1
    92    76    88      1
    93    76    92      1
    94    89    90      1
    95    89    94      1
    96    89    96      1
    97    89    97      1
    98    90    91      1
    99    90    98      1
   100    90    99      1
   101    91    92      1
   102    91    93      1
   103    91   100      1
   104    92   101      1
   105    92   102      1
   106    93    94      1
   107    93   103      1
   108    93   104      1
   109    94    95      1
   110    94   105      1
   111    95   106      1
   112    95   107      1
   113    95   108      1
   114   108   109      1
   115   108   110      1
   116   108   111      1
   117   109   112      1
   118   109   113      1
   119   109   114      1
   120   114   115      1
   121   114   116      1
   122   114   117      1
   123   115   118      1
   124   115   119      1
   125   115   120      1
   126   120   121      1
   127   120   122      1
   128   120   123      1
   129   121   124      1
   130   121   125      1
   131   121   126      1
   132   126   127      1
   133   126   128      1
   134   126   129      1
   135   127   130      1
   136   127   131      1
   137   127   135      1
   138   132   133      1
   139   132   137      1
   140   132   139      1
   141   132   140      1
   142   133   134      1
   143   133   141      1
   144   133   142      1
   145   134   135      1
   146   134   136      1
   147   134   143      1
   148   135   144      1
   149   135   145      1
   150   136   137      1
   151   136   146      1
   152   136   147      1
   153   137   138      1
   154   137   148      1
   155   138   149      1
   156   138   150      1
   157   138   154      1
   158   151   152      1
   159   151   156      1
   160   151   158      1
   161   151   159      1
   162   152   153      1
   163   152   160      1
   164   152   161      1
   165   153   154      1
   166   153   155      1
   167   153   162      1
   168   154   163      1
   169   154   164      1
   170   155   156      1
   171   155   165      1
   172   155   166      1
   173   156   157      1
   174   156   167      1
   175   157   168      1
   176   157   169      1
   177   157   170      1
   178   170   171      1
   179   170   172      1
   180   170   173      1
   181   171   174      1
   182   171   175      1
   183   171   179      1
   184   176   177      1
   185   176   181      1
   186   176   183      1
   187   176   184      1
   188   177   178      1
   189   177   185      1
   190   177   186      1
   191   178   179      1
   192   178   180      1
   193   178   187      1
   194   179   188      1
   195   179   189      1
   196   180   181      1
   197   180   190      1
   198   180   191      1
   199   181   182      1
   200   181   192      1
   201   182   193      1
   202   182   194      1
   203   182   195      1
   204   195   196      1
   205   195   197      1
   206   195   198      1
   207   196   199      1
   208   196   200      1
   209   196   204      1
   210   201   202      1
   211   201   206      1
   212   201   208      1
   213   201   209      1
   214   202   203      1
   215   202   210      1
   216   202   211      1
   217   203   204      1
   218   203   205      1
   219   203   212      1
   220   204   213      1
   221   204   214      1
   222   205   206      1
   223   205   215      1
   224   205   216      1
   225   206   207      1
   226   206   217      1
   227   207   218      1
   228   207   219      1
   229   207   223      1
   230   220   221      1
   231   220   225      1
   232   220   227      1
   233   220   228      1
   234   221   222      1
   235   221   229      1
   236   221   230      1
   237   222   223      1
   238   222   224      1
   239   222   231      1
   240   223   232      1
   241   223   233      1
   242   224   225      1
   243   224   234      1
   244   224   235      1
   245   225   226      1
   246   225   236      1
   247   226   237      1
   248   226   238      1
   249   226   242      1
   250   239   240      1
   251   239   244      1
   252   239   246      1
   253   239   247      1
   254   240   241      1
   255   240   248      1
   256   240   249      1
   257   241   242      1
   258   241   243      1
   259   241   250      1
   260   242   251      1
   261   242   252      1
   262   243   244      1
   263   243   253      1
   264   243   254      1
   265   244   245      1
   266   244   255      1
   267   245   256      1
   268   245   257      1
   269   245   261      1
   270   258   259      1
   271   258   263      1
   272   258   265      1
   273   258   266      1
   274   259   260      1
   275   259   267      1
   276   259   268      1
   277   260   261      1
   278   260   262      1
   279   260   269      1
   280   261   270      1
   281   261   271      1
   282   262   263      1
   283   262   272      1
   284   262   273      1
   285   263   264      1
   286   263   274      1
   287   264   275      1
   288   264   276      1
   289   264   277      1
   290   277   278      1
   291   277   279      1
   292   277   280      1
   293   278   281      1
   294   278   282      1
   295   278   286      1
   296   283   284      1
   297   283   288      1
   298   283   290      1
   299   283   291      1
   300   284   285      1
   301   284   292      1
   302   284   293      1
   303   285   286      1
   304   285   287      1
   305   285   294      1
   306   286   295      1
   307   286   296      1
   308   287   288      1
   309   287   297      1
   310   287   298      1
   311   288   289      1
   312   288   299      1
   313   289   300      1
   314   289   301      1
   315   289   305      1
   316   302   303      1
   317   302   307      1
   318   302   309      1
   319   302   310      1
   320   303   304      1
   321   303   311      1
   322   303   312      1
   323   304   305      1
   324   304   306      1
   325   304   313      1
   326   305   314      1
   327   305   315      1
   328   306   307      1
   329   306   316      1
   330   306   317      1
   331   307   308      1
   332   307   318      1
   333   308   319      1
   334   308   320      1
   335   308   324      1
   336   321   322      1
   337   321   326      1
   338   321   328      1
   339   321   329      1
   340   322   323      1
   341   322   330      1
   342   322   331      1
   343   323   324      1
   344   323   325      1
   345   323   332      1
   346   324   333      1
   347   324   334      1
   348   325   326      1
   349   325   335      1
   350   325   336      1
   351   326   327      1
   352   326   337      1
   353   327   338      1
   354   327   339      1
   355   327   343      1
   356   340   341      1
   357   340   345      1
   358   340   347      1
   359   340   348      1
   360   341   342      1
   361   341   349      1
   362   341   350      1
   363   342   343      1
   364   342   344      1
   365   342   351      1
   366   343   352      1
   367   343   353      1
   368   344   345      1
   369   344   354      1
   370   344   355      1
   371   345   346      1
   372   345   356      1
   373   346   357      1
   374   346   358      1
   375   346   362      1
   376   359   360      1
   377   359   364      1
   378   359   366      1
   379   359   367      1
   380   360   361      1
   381   360   368      1
   382   360   369      1
   383   361   362      1
   384   361   363      1
   385   361   370      1
   386   362   371      1
   387   362   372      1
   388   363   364      1
   389   363   373      1
   390   363   374      1
   391   364   365      1
   392   364   375      1
   393   365   376      1
   394   365   377      1
   395   365   381      1
   396   378   379      1
   397   378   383      1
   398   378   385      1
   399   378   386      1
   400   379   380      1
   401   379   387      1
   402   379   388      1
   403   380   381      1
   404   380   382      1
   405   380   389      1
   406   381   390      1
   407   381   391      1
   408   382   383      1
   409   382   392      1
   410   382   393      1
   411   383   384      1
   412   383   394      1
   413   384   395      1
   414   384   396      1
   415   384   397      1
   416   397   398      1
   417   397   399      1
   418   397   400      1
   419   398   401      1
   420   398   402      1
   421   398   406      1
   422   403   404      1
   423   403   408      1
   424   403   410      1
   425   403   411      1
   426   404   405      1
   427   404   412      1
   428   404   413      1
   429   405   406      1
   430   405   407      1
   431   405   414      1
   432   406   415      1
   433   406   416      1
   434   407   408      1
   435   407   417      1
   436   407   418      1
   437   408   409      1
   438   408   419      1
   439   409   420      1
   440   409   421      1
   441   409   425      1
   442   422   423      1
   443   422   427      1
   444   422   429      1
   445   422   430      1
   446   423   424      1
   447   423   431      1
   448   423   432      1
   449   424   425      1
   450   424   426      1
   451   424   433      1
   452   425   434      1
   453   425   435      1
   454   426   427      1
   455   426   436      1
   456   426   437      1
   457   427   428      1
   458   427   438      1
   459   428   439      1
   460   428   440      1
   461   428   444      1
   462   441   442      1
   463   441   446      1
   464   441   448      1
   465   441   449      1
   466   442   443      1
   467   442   450      1
   468   442   451      1
   469   443   444      1
   470   443   445      1
   471   443   452      1
   472   444   453      1
   473   444   454      1
   474   445   446      1
   475   445   455      1
   476   445   456      1
   477   446   447      1
   478   446   457      1
   479   447   458      1
   480   447   459      1
   481   447   463      1
   482   460   461      1
   483   460   465      1
   484   460   467      1
   485   460   468      1
   486   461   462      1
   487   461   469      1
   488   461   470      1
   489   462   463      1
   490   462   464      1
   491   462   471      1
   492   463   472      1
   493   463   473      1
   494   464   465      1
   495   464   474      1
   496   464   475      1
   497   465   466      1
   498   465   476      1
   499   466   477      1
   500   466   478      1
   501   466   479      1
   502   479   480      1
   503   479   481      1
   504   479   482      1
   505   480   483      1
   506   480   484      1
   507   480   488      1
   508   485   486      1
   509   485   490      1
   510   485   492      1
   511   485   493      1
   512   486   487      1
   513   486   494      1
   514   486   495      1
   515   487   488      1
   516   487   489      1
   517   487   496      1
   518   488   497      1
   519   488   498      1
   520   489   490      1
   521   489   499      1
   522   489   500      1
   523   490   491      1
   524   490   501      1
   525   491   502      1
   526   491   503      1
   527   491   507      1
   528   504   505      1
   529   504   509      1
   530   504   511      1
   531   504   512      1
   532   505   506      1
   533   505   513      1
   534   505   514      1
   535   506   507      1
   536   506   508      1
   537   506   515      1
   538   507   516      1
   539   507   517      1
   540   508   509      1
   541   508   518      1
   542   508   519      1
   543   509   510      1
   544   509   520      1
   545   510   521      1
   546   510   522      1
   547   510   526      1
   548   523   524      1
   549   523   528      1
   550   523   530      1
   551   523   531      1
   552   524   525      1
   553   524   532      1
   554   524   533      1
   555   525   526      1
   556   525   527      1
   557   525   534      1
   558   526   535      1
   559   526   536      1
   560   527   528      1
   561   527   537      1
   562   527   538      1
   563   528   529      1
   564   528   539      1
   565   529   540      1
   566   529   541      1
   567   529   545      1
   568   542   543      1
   569   542   547      1
   570   542   549      1
   571   542   550      1
   572   543   544      1
   573   543   551      1
   574   543   552      1
   575   544   545      1
   576   544   546      1
   577   544   553      1
   578   545   554      1
   579   545   555      1
   580   546   547      1
   581   546   556      1
   582   546   557      1
   583   547   548      1
   584   547   558      1
   585   548   559      1
   586   548   560      1
   587   548   564      1
   588   561   562      1
   589   561   566      1
   590   561   568      1
   591   561   569      1
   592   562   563      1
   593   562   570      1
   594   562   571      1
   595   563   564      1
   596   563   565      1
   597   563   572      1
   598   564   573      1
   599   564   574      1
   600   565   566      1
   601   565   575      1
   602   565   576      1
   603   566   567      1
   604   566   577      1
   605   567   578      1
   606   567   579      1
   607   567   583      1
   608   580   581      1
   609   580   585      1
   610   580   587      1
   611   580   588      1
   612   581   582      1
   613   581   589      1
   614   581   590      1
   615   582   583      1
   616   582   584      1
   617   582   591      1
   618   583   592      1
   619   583   593      1
   620   584   585      1
   621   584   594      1
   622   584   595      1
   623   585   586      1
   624   585   596      1
   625   586   597      1
   626   586   598      1
   627   586   602      1
   628   599   600      1
   629   599   604      1
   630   599   606      1
   631   599   607      1
   632   600   601      1
   633   600   608      1
   634   600   609      1
   635   601   602      1
   636   601   603      1
   637   601   610      1
   638   602   611      1
   639   602   612      1
   640   603   604      1
   641   603   613      1
   642   603   614      1
   643   604   605      1
   644   604   615      1
   645   605   616      1
   646   605   617      1
   647   605   621      1
   648   618   619      1
   649   618   623      1
   650   618   625      1
   651   618   626      1
   652   619   620      1
   653   619   627      1
   654   619   628      1
   655   620   621      1
   656   620   622      1
   657   620   629      1
   658   621   630      1
   659   621   631      1
   660   622   623      1
   661   622   632      1
   662   622   633      1
   663   623   624      1
   664   623   634      1
   665   624   635      1
   666   624   636      1
   667   624   640      1
   668   637   638      1
   669   637   642      1
   670   637   644      1
   671   637   645      1
   672   638   639      1
   673   638   646      1
   674   638   647      1
   675   639   640      1
   676   639   641      1
   677   639   648      1
   678   640   649      1
   679   640   650      1
   680   641   642      1
   681   641   651      1
   682   641   652      1
   683   642   643      1
   684   642   653      1
   685   643   654      1
   686   643   655      1
   687   643   659      1
   688   656   657      1
   689   656   661      1
   690   656   663      1
   691   656   664      1
   692   657   658      1
   693   657   665      1
   694   657   666      1
   695   658   659      1
   696   658   660      1
   697   658   667      1
   698   659   668      1
   699   659   669      1
   700   660   661      1
   701   660   670      1
   702   660   671      1
   703   661   662      1
   704   661   672      1
   705   662   673      1
   706   662   674      1
   707   662   675      1
   708   675   676      1
   709   675   677      1
   710   675   678      1
   711   676   679      1
   712   676   680      1
   713   676   684      1
   714   681   682      1
   715   681   686      1
   716   681   688      1
   717   681   689      1
   718   682   683      1
   719   682   690      1
   720   682   691      1
   721   683   684      1
   722   683   685      1
   723   683   692      1
   724   684   693      1
   725   684   694      1
   726   685   686      1
   727   685   695      1
   728   685   696      1
   729   686   687      1
   730   686   697      1
   731   687   698      1
   732   687   699      1
   733   687   703      1
   734   700   701      1
   735   700   705      1
   736   700   707      1
   737   700   708      1
   738   701   702      1
   739   701   709      1
   740   701   710      1
   741   702   703      1
   742   702   704      1
   743   702   711      1
   744   703   712      1
   745   703   713      1
   746   704   705      1
   747   704   714      1
   748   704   715      1
   749   705   706      1
   750   705   716      1
   751   706   717      1
   752   706   718      1
   753   706   722      1
   754   719   720      1
   755   719   724      1
   756   719   726      1
   757   719   727      1
   758   720   721      1
   759   720   728      1
   760   720   729      1
   761   721   722      1
   762   721   723      1
   763   721   730      1
   764   722   731      1
   765   722   732      1
   766   723   724      1
   767   723   733      1
   768   723   734      1
   769   724   725      1
   770   724   735      1
   771   725   736      1
   772   725   737      1
   773   725   741      1
   774   738   739      1
   775   738   743      1
   776   738   745      1
   777   738   746      1
   778   739   740      1
   779   739   747      1
   780   739   748      1
   781   740   741      1
   782   740   742      1
   783   740   749      1
   784   741   750      1
   785   741   751      1
   786   742   743      1
   787   742   752      1
   788   742   753      1
   789   743   744      1
   790   743   754      1
   791   744   755      1
   792   744   756      1
   793   744   760      1
   794   757   758      1
   795   757   762      1
   796   757   764      1
   797   757   765      1
   798   758   759      1
   799   758   766      1
   800   758   767      1
   801   759   760      1
   802   759   761      1
   803   759   768      1
   804   760   769      1
   805   760   770      1
   806   761   762      1
   807   761   771      1
   808   761   772      1
   809   762   763      1
   810   762   773      1
   811   763   774      1
   812   763   775      1
   813   763   779      1
   814   776   777      1
   815   776   781      1
   816   776   783      1
   817   776   784      1
   818   777   778      1
   819   777   785      1
   820   777   786      1
   821   778   779      1
   822   778   780      1
   823   778   787      1
   824   779   788      1
   825   779   789      1
   826   780   781      1
   827   780   790      1
   828   780   791      1
   829   781   782      1
   830   781   792      1
   831   782   793      1
   832   782   794      1
   833   782   795      1
   834   795   796      1
   835   795   797      1
   836   795   798      1
   837   796   799      1
   838   796   800      1
   839   796   804      1
   840   801   802      1
   841   801   806      1
   842   801   808      1
   843   801   809      1
   844   802   803      1
   845   802   810      1
   846   802   811      1
   847   803   804      1
   848   803   805      1
   849   803   812      1
   850   804   813      1
   851   804   814      1
   852   805   806      1
   853   805   815      1
   854   805   816      1
   855   806   807      1
   856   806   817      1
   857   807   818      1
   858   807   819      1
   859   807   823      1
   860   820   821      1
   861   820   825      1
   862   820   827      1
   863   820   828      1
   864   821   822      1
   865   821   829      1
   866   821   830      1
   867   822   823      1
   868   822   824      1
   869   822   831      1
   870   823   832      1
   871   823   833      1
   872   824   825      1
   873   824   834      1
   874   824   835      1
   875   825   826      1
   876   825   836      1
   877   826   837      1
   878   826   838      1
   879   826   839      1
   880   839   840      1
   881   839   841      1
   882   839   842      1
   883   840   843      1
   884   840   844      1
   885   840   848      1
   886   845   846      1
   887   845   850      1
   888   845   852      1
   889   845   853      1
   890   846   847      1
   891   846   854      1
   892   846   855      1
   893   847   848      1
   894   847   849      1
   895   847   856      1
   896   848   857      1
   897   848   858      1
   898   849   850      1
   899   849   859      1
   900   849   860      1
   901   850   851      1
   902   850   861      1
   903   851   862      1
   904   851   863      1
   905   851   867      1
   906   864   865      1
   907   864   869      1
   908   864   871      1
   909   864   872      1
   910   865   866      1
   911   865   873      1
   912   865   874      1
   913   866   867      1
   914   866   868      1
   915   866   875      1
   916   867   876      1
   917   867   877      1
   918   868   869      1
   919   868   878      1
   920   868   879      1
   921   869   870      1
   922   869   880      1
   923   870   881      1
   924   870   882      1
   925   870   883      1
   926   883   884      1
   927   883   885      1
   928   883   886      1
   929   884   887      1
   930   884   888      1
   931   884   892      1
   932   889   890      1
   933   889   894      1
   934   889   896      1
   935   889   897      1
   936   890   891      1
   937   890   898      1
   938   890   899      1
   939   891   892      1
   940   891   893      1
   941   891   900      1
   942   892   901      1
   943   892   902      1
   944   893   894      1
   945   893   903      1
   946   893   904      1
   947   894   895      1
   948   894   905      1
   949   895   906      1
   950   895   907      1
   951   895   908      1
   952   908   909      1
   953   908   910      1
   954   908   911      1
   955   909   912      1
   956   909   913      1
   957   909   917      1
   958   914   915      1
   959   914   919      1
   960   914   921      1
   961   914   922      1
   962   915   916      1
   963   915   923      1
   964   915   924      1
   965   916   917      1
   966   916   918      1
   967   916   925      1
   968   917   926      1
   969   917   927      1
   970   918   919      1
   971   918   928      1
   972   918   929      1
   973   919   920      1
   974   919   930      1
   975   920   931      1
   976   920   932      1
   977   920   936      1
   978   933   934      1
   979   933   938      1
   980   933   940      1
   981   933   941      1
   982   934   935      1
   983   934   942      1
   984   934   943      1
   985   935   936      1
   986   935   937      1
   987   935   944      1
   988   936   945      1
   989   936   946      1
   990   937   938      1
   991   937   947      1
   992   937   948      1
   993   938   939      1
   994   938   949      1
   995   939   950      1
   996   939   951      1
   997   939   955      1
   998   952   953      1
   999   952   957      1
  1000   952   959      1
  1001   952   960      1
  1002   953   954      1
  1003   953   961      1
  1004   953   962      1
  1005   954   955      1
  1006   954   956      1
  1007   954   963      1
  1008   955   964      1
  1009   955   965      1
  1010   956   957      1
  1011   956   966      1
  1012   956   967      1
  1013   957   958      1
  1014   957   968      1
  1015   958   969      1
  1016   958   970      1
  1017   958   971      1
  1018   971   972      1
  1019   971   973      1
  1020   971   974      1
  1021   972   975      1
  1022   972   976      1
  1023   972   980      1
  1024   977   978      1
  1025   977   982      1
  1026   977   984      1
  1027   977   985      1
  1028   978   979      1
  1029   978   986      1
  1030   978   987      1
  1031   979   980      1
  1032   979   981      1
  1033   979   988      1
  1034   980   989      1
  1035   980   990      1
  1036   981   982      1
  1037   981   991      1
  1038   981   992      1
  1039   982   983      1
  1040   982   993      1
  1041   983   994      1
  1042   983   995      1
  1043   983   996      H
