###
### Created by PolyChef-cpp17 on Wed Feb 26 21:14:12 2025
###

@<TRIPOS>MOLECULE
NO_INFO
1179 1233 1 0 0
SMALL
USER_CHARGES


@<TRIPOS>ATOM
      1 C         169.1934   98.0794  230.2440 C.3       0        0    0.0000
      2 C         170.2617   97.2311  230.9198 C.3       0        0    0.0000
      3 C         171.5570   97.7361  230.2757 C.3       0        0    0.0000
      4 C         172.7741   96.8212  230.4423 C.3       0        0    0.0000
      5 C         171.1794   98.0817  228.8220 C.3       0        0    0.0000
      6 C         169.6388   98.0857  228.7780 C.3       0        0    0.0000
      7 C         169.0060   99.1723  227.9033 C.3       0        0    0.0000
      8 H         168.1933   97.6525  230.3681 H         0        0    0.0000
      9 H         169.1902   99.0853  230.6781 H         0        0    0.0000
     10 H         170.2632   97.3647  232.0060 H         0        0    0.0000
     11 H         170.0817   96.1715  230.7076 H         0        0    0.0000
     12 H         171.8100   98.6859  230.7707 H         0        0    0.0000
     13 H         172.5511   95.8442  229.9974 H         0        0    0.0000
     14 H         173.6165   97.2392  229.8784 H         0        0    0.0000
     15 H         171.5643   97.3553  228.0980 H         0        0    0.0000
     16 H         171.6156   99.0490  228.5506 H         0        0    0.0000
     17 H         169.3325   97.1204  228.3475 H         0        0    0.0000
     18 H         169.3548   99.0492  226.8711 H         0        0    0.0000
     19 H         167.9188   99.0315  227.8873 H         0        0    0.0000
     20 C         172.5560  102.3896  227.9571 C.3       1        0    0.0000
     21 C         171.0424  102.5306  228.1358 C.3       1        0    0.0000
     22 C         170.4063  101.2783  227.5063 C.3       1        0    0.0000
     23 C         169.3155  100.6277  228.3660 C.3       1        0    0.0000
     24 C         171.5877  100.3366  227.2520 C.3       1        0    0.0000
     25 C         172.7619  101.2683  226.9329 C.3       1        0    0.0000
     26 C         172.7367  101.7673  225.4757 C.3       1        0    0.0000
     27 H         173.0228  103.3377  227.6738 H         1        0    0.0000
     28 H         172.9980  102.0872  228.9152 H         1        0    0.0000
     29 H         170.7992  102.6434  229.1980 H         1        0    0.0000
     30 H         170.6799  103.4295  227.6234 H         1        0    0.0000
     31 H         169.9791  101.5603  226.5333 H         1        0    0.0000
     32 H         169.6464  100.5977  229.4110 H         1        0    0.0000
     33 H         168.3988  101.2281  228.3401 H         1        0    0.0000
     34 H         171.3788   99.6247  226.4469 H         1        0    0.0000
     35 H         171.8158   99.7571  228.1560 H         1        0    0.0000
     36 H         173.7082  100.7464  227.1239 H         1        0    0.0000
     37 H         173.5864  102.4272  225.2686 H         1        0    0.0000
     38 H         171.8274  102.3568  225.3085 H         1        0    0.0000
     39 C         172.7421  100.5873  224.4610 C.3       2        0    0.0000
     40 C         173.8111  100.7111  223.3658 C.3       2        0    0.0000
     41 H         172.9481   99.6757  225.0363 H         2        0    0.0000
     42 H         171.7414  100.4664  224.0298 H         2        0    0.0000
     43 H         173.6612  101.6141  222.7624 H         2        0    0.0000
     44 H         174.7880  100.8188  223.8543 H         2        0    0.0000
     45 C         170.9886   99.3908  220.1395 C.3       3        0    0.0000
     46 C         171.6193  100.0231  221.3826 C.3       3        0    0.0000
     47 C         172.5244   98.9488  222.0117 C.3       3        0    0.0000
     48 C         173.9097   99.4588  222.4274 C.3       3        0    0.0000
     49 C         172.6027   97.8462  220.9509 C.3       3        0    0.0000
     50 C         171.2380   97.8831  220.2547 C.3       3        0    0.0000
     51 C         170.1483   97.1489  221.0589 C.3       3        0    0.0000
     52 H         169.9322   99.6572  220.0384 H         3        0    0.0000
     53 H         171.5034   99.7734  219.2488 H         3        0    0.0000
     54 H         172.1660  100.9310  221.1049 H         3        0    0.0000
     55 H         170.8416  100.3189  222.0964 H         3        0    0.0000
     56 H         172.0112   98.5384  222.8932 H         3        0    0.0000
     57 H         174.4438   98.6644  222.9622 H         3        0    0.0000
     58 H         174.5086   99.7044  221.5428 H         3        0    0.0000
     59 H         172.8296   96.8695  221.3905 H         3        0    0.0000
     60 H         173.3914   98.0729  220.2218 H         3        0    0.0000
     61 H         171.3214   97.4330  219.2573 H         3        0    0.0000
     62 H         169.6147   97.8378  221.7229 H         3        0    0.0000
     63 H         170.6161   96.3897  221.6969 H         3        0    0.0000
     64 C         169.1255   96.4354  220.1279 C.3       4        0    0.0000
     65 C         168.9435   94.9411  220.4301 C.3       4        0    0.0000
     66 H         168.1591   96.9333  220.2784 H         4        0    0.0000
     67 H         169.4027   96.5995  219.0799 H         4        0    0.0000
     68 H         169.3014   94.6911  221.4358 H         4        0    0.0000
     69 H         167.8687   94.7192  220.4154 H         4        0    0.0000
     70 C         171.8530   93.0118  217.1845 C.3       5        0    0.0000
     71 C         171.9837   93.4406  218.6484 C.3       5        0    0.0000
     72 C         170.9563   94.5560  218.8704 C.3       5        0    0.0000
     73 C         169.6161   93.9919  219.3788 C.3       5        0    0.0000
     74 C         170.8858   95.2083  217.4838 C.3       5        0    0.0000
     75 C         170.9206   94.0300  216.5074 C.3       5        0    0.0000
     76 C         171.3564   94.4519  215.0996 C.3       5        0    0.0000
     77 H         172.8445   92.9780  216.7189 H         5        0    0.0000
     78 H         171.4273   92.0042  217.1146 H         5        0    0.0000
     79 H         172.9928   93.8403  218.8109 H         5        0    0.0000
     80 H         171.8595   92.5965  219.3344 H         5        0    0.0000
     81 H         171.3411   95.2754  219.6046 H         5        0    0.0000
     82 H         169.7920   93.0202  219.8558 H         5        0    0.0000
     83 H         168.9212   93.8124  218.5515 H         5        0    0.0000
     84 H         171.7656   95.8488  217.3385 H         5        0    0.0000
     85 H         169.9990   95.8324  217.3380 H         5        0    0.0000
     86 H         169.9129   93.5943  216.4537 H         5        0    0.0000
     87 H         171.6301   93.5722  214.5055 H         5        0    0.0000
     88 H         172.2523   95.0802  215.1689 H         5        0    0.0000
     89 C         169.6306   93.5208  211.0681 C.3       6        0    0.0000
     90 C         170.3246   93.5948  212.4306 C.3       6        0    0.0000
     91 C         170.3045   95.0722  212.8444 C.3       6        0    0.0000
     92 C         170.2421   95.2503  214.3639 C.3       6        0    0.0000
     93 C         169.0954   95.6299  212.0860 C.3       6        0    0.0000
     94 C         169.2201   94.9564  210.7152 C.3       6        0    0.0000
     95 C         167.9494   95.0056  209.8623 C.3       6        0    0.0000
     96 H         170.2939   93.1027  210.3033 H         6        0    0.0000
     97 H         168.7584   92.8598  211.1381 H         6        0    0.0000
     98 H         171.3508   93.2156  212.3782 H         6        0    0.0000
     99 H         169.7834   92.9691  213.1504 H         6        0    0.0000
    100 H         171.2147   95.5499  212.4533 H         6        0    0.0000
    101 H         169.2673   94.9056  214.7290 H         6        0    0.0000
    102 H         170.3204   96.3119  214.6259 H         6        0    0.0000
    103 H         169.1283   96.7213  212.0099 H         6        0    0.0000
    104 H         168.1573   95.3462  212.5792 H         6        0    0.0000
    105 H         170.0508   95.4257  210.1682 H         6        0    0.0000
    106 H         167.6707   96.0453  209.6547 H         6        0    0.0000
    107 H         167.1188   94.5619  210.4243 H         6        0    0.0000
    108 C         168.1066   94.2351  208.5227 C.3       7        0    0.0000
    109 C         167.6124   95.0123  207.2943 C.3       7        0    0.0000
    110 H         169.1789   94.0400  208.3934 H         7        0    0.0000
    111 H         167.6172   93.2571  208.5994 H         7        0    0.0000
    112 H         166.5311   95.1867  207.3411 H         7        0    0.0000
    113 H         168.0902   96.0003  207.3017 H         7        0    0.0000
    114 C         167.9807   94.3417  205.9255 C.3       8        0    0.0000
    115 C         166.9415   94.5712  204.8188 C.3       8        0    0.0000
    116 H         168.0487   93.2619  206.1100 H         8        0    0.0000
    117 H         168.9782   94.6693  205.6102 H         8        0    0.0000
    118 H         165.9685   94.2221  205.1876 H         8        0    0.0000
    119 H         166.8270   95.6382  204.5942 H         8        0    0.0000
    120 C         167.2342   93.7814  203.4963 C.3       9        0    0.0000
    121 C         166.3699   94.2177  202.3047 C.3       9        0    0.0000
    122 H         168.2852   93.9688  203.2413 H         9        0    0.0000
    123 H         167.1440   92.7046  203.6814 H         9        0    0.0000
    124 H         165.3033   94.0693  202.5100 H         9        0    0.0000
    125 H         166.5138   95.2956  202.1563 H         9        0    0.0000
    126 C         166.7498   93.5201  200.9528 C.3      10        0    0.0000
    127 C         165.9361   94.0115  199.7470 C.3      10        0    0.0000
    128 H         166.5522   92.4484  201.0829 H        10        0    0.0000
    129 H         167.8269   93.6209  200.7749 H        10        0    0.0000
    130 H         164.8820   94.0678  200.0477 H        10        0    0.0000
    131 H         166.2324   95.0250  199.4521 H        10        0    0.0000
    132 C         162.7590   93.6221  196.6027 C.3      11        0    0.0000
    133 C         163.5903   93.7616  197.8703 C.3      11        0    0.0000
    134 C         165.0016   93.4013  197.3947 C.3      11        0    0.0000
    135 C         166.0016   93.0589  198.5033 C.3      11        0    0.0000
    136 C         164.8026   92.3143  196.3203 C.3      11        0    0.0000
    137 C         163.2996   92.3308  195.9798 C.3      11        0    0.0000
    138 C         162.9548   92.1191  194.5025 C.3      11        0    0.0000
    139 H         161.6886   93.5567  196.8210 H        11        0    0.0000
    140 H         162.9218   94.4913  195.9560 H        11        0    0.0000
    141 H         163.5412   94.7743  198.2821 H        11        0    0.0000
    142 H         163.2223   93.0660  198.6326 H        11        0    0.0000
    143 H         165.3998   94.2875  196.8776 H        11        0    0.0000
    144 H         165.8262   92.0297  198.8382 H        11        0    0.0000
    145 H         167.0173   93.0872  198.0911 H        11        0    0.0000
    146 H         165.0883   91.3155  196.6673 H        11        0    0.0000
    147 H         165.4376   92.5341  195.4553 H        11        0    0.0000
    148 H         162.8417   91.4952  196.5303 H        11        0    0.0000
    149 H         163.3697   91.1594  194.1720 H        11        0    0.0000
    150 H         161.8661   92.0451  194.3955 H        11        0    0.0000
    151 C         160.4827   94.7782  191.8497 C.3      12        0    0.0000
    152 C         161.0900   93.8201  192.8778 C.3      12        0    0.0000
    153 C         162.5150   93.5180  192.3959 C.3      12        0    0.0000
    154 C         163.4755   93.2421  193.5560 C.3      12        0    0.0000
    155 C         162.8666   94.7497  191.5549 C.3      12        0    0.0000
    156 C         161.5661   95.0151  190.7894 C.3      12        0    0.0000
    157 C         161.4693   96.4073  190.1593 C.3      12        0    0.0000
    158 H         159.5766   94.3594  191.3987 H        12        0    0.0000
    159 H         160.1962   95.7129  192.3465 H        12        0    0.0000
    160 H         160.5014   92.9004  192.9643 H        12        0    0.0000
    161 H         161.0930   94.2979  193.8649 H        12        0    0.0000
    162 H         162.4740   92.6411  191.7334 H        12        0    0.0000
    163 H         163.6075   94.1591  194.1426 H        12        0    0.0000
    164 H         164.4652   92.9667  193.1730 H        12        0    0.0000
    165 H         163.7067   94.5578  190.8799 H        12        0    0.0000
    166 H         163.1263   95.6018  192.1956 H        12        0    0.0000
    167 H         161.4555   94.2478  190.0092 H        12        0    0.0000
    168 H         162.2111   96.5151  189.3594 H        12        0    0.0000
    169 H         161.7080   97.1644  190.9159 H        12        0    0.0000
    170 C         160.0529   96.7030  189.5943 C.3      13        0    0.0000
    171 C         159.9635   98.0044  188.7844 C.3      13        0    0.0000
    172 H         159.7971   95.8692  188.9281 H        13        0    0.0000
    173 H         159.3197   96.6893  190.4093 H        13        0    0.0000
    174 H         159.9239   98.8812  189.4413 H        13        0    0.0000
    175 H         160.8812   98.0991  188.1898 H        13        0    0.0000
    176 C         157.6169  101.3907  186.7916 C.3      14        0    0.0000
    177 C         158.6494  100.5884  187.5820 C.3      14        0    0.0000
    178 C         158.8384   99.2564  186.8356 C.3      14        0    0.0000
    179 C         158.7641   98.0457  187.7752 C.3      14        0    0.0000
    180 C         157.7610   99.2658  185.7402 C.3      14        0    0.0000
    181 C         157.5540  100.7480  185.4037 C.3      14        0    0.0000
    182 C         158.6158  101.3336  184.4550 C.3      14        0    0.0000
    183 H         156.6395  101.2905  187.2808 H        14        0    0.0000
    184 H         157.8573  102.4582  186.7656 H        14        0    0.0000
    185 H         158.3175  100.4538  188.6173 H        14        0    0.0000
    186 H         159.6029  101.1285  187.6173 H        14        0    0.0000
    187 H         159.8268   99.2766  186.3552 H        14        0    0.0000
    188 H         158.7369   97.1153  187.1962 H        14        0    0.0000
    189 H         157.8303   98.0891  188.3486 H        14        0    0.0000
    190 H         158.0522   98.6649  184.8731 H        14        0    0.0000
    191 H         156.8211   98.8508  186.1268 H        14        0    0.0000
    192 H         156.5576  100.9017  184.9700 H        14        0    0.0000
    193 H         159.5885  100.8520  184.6014 H        14        0    0.0000
    194 H         158.7556  102.3974  184.6826 H        14        0    0.0000
    195 C         158.1958  101.2128  182.9627 C.3      15        0    0.0000
    196 C         158.4454  102.4845  182.1394 C.3      15        0    0.0000
    197 H         158.7967  100.4031  182.5291 H        15        0    0.0000
    198 H         157.1486  100.8950  182.8982 H        15        0    0.0000
    199 H         158.6469  103.3458  182.7871 H        15        0    0.0000
    200 H         159.3486  102.3277  181.5360 H        15        0    0.0000
    201 C         156.2394  101.0669  178.0989 C.3      16        0    0.0000
    202 C         157.3749  101.3146  179.0909 C.3      16        0    0.0000
    203 C         156.7173  101.5855  180.4552 C.3      16        0    0.0000
    204 C         157.2885  102.8339  181.1403 C.3      16        0    0.0000
    205 C         155.2129  101.6694  180.1544 C.3      16        0    0.0000
    206 C         155.0014  100.7527  178.9429 C.3      16        0    0.0000
    207 C         154.9141   99.2558  179.2923 C.3      16        0    0.0000
    208 H         156.0621  101.9859  177.5259 H        16        0    0.0000
    209 H         156.4859  100.2798  177.3794 H        16        0    0.0000
    210 H         158.0062  102.1424  178.7498 H        16        0    0.0000
    211 H         158.0164  100.4283  179.1615 H        16        0    0.0000
    212 H         156.8983  100.7110  181.0961 H        16        0    0.0000
    213 H         156.4952  103.3750  181.6689 H        16        0    0.0000
    214 H         157.6835  103.5164  180.3781 H        16        0    0.0000
    215 H         154.6051  101.3858  181.0192 H        16        0    0.0000
    216 H         154.9359  102.6958  179.8805 H        16        0    0.0000
    217 H         154.0969  101.0499  178.3970 H        16        0    0.0000
    218 H         155.4959   99.0227  180.1905 H        16        0    0.0000
    219 H         155.3505   98.6684  178.4753 H        16        0    0.0000
    220 C         152.5238  102.2999  180.5085 C.3      17        0    0.0000
    221 C         153.3768  101.0396  180.6749 C.3      17        0    0.0000
    222 C         152.5579   99.8843  180.0844 C.3      17        0    0.0000
    223 C         153.4446   98.7869  179.4893 C.3      17        0    0.0000
    224 C         151.6448  100.5857  179.0733 C.3      17        0    0.0000
    225 C         151.2249  101.8536  179.8244 C.3      17        0    0.0000
    226 C         150.6264  102.9507  178.9397 C.3      17        0    0.0000
    227 H         152.3165  102.7732  181.4743 H        17        0    0.0000
    228 H         153.0679  103.0310  179.8986 H        17        0    0.0000
    229 H         153.6154  100.8539  181.7277 H        17        0    0.0000
    230 H         154.3277  101.1697  180.1444 H        17        0    0.0000
    231 H         151.9344   99.4616  180.8858 H        17        0    0.0000
    232 H         153.0416   98.4843  178.5154 H        17        0    0.0000
    233 H         153.4283   97.8965  180.1286 H        17        0    0.0000
    234 H         150.7836   99.9670  178.8020 H        17        0    0.0000
    235 H         152.1929  100.8357  178.1563 H        17        0    0.0000
    236 H         150.5038  101.5753  180.6068 H        17        0    0.0000
    237 H         150.5346  103.8862  179.5038 H        17        0    0.0000
    238 H         149.6120  102.6611  178.6404 H        17        0    0.0000
    239 C         150.3468  105.5699  175.0306 C.3      18        0    0.0000
    240 C         150.1354  105.0548  176.4564 C.3      18        0    0.0000
    241 C         150.5842  103.5824  176.4635 C.3      18        0    0.0000
    242 C         151.4673  103.2003  177.6577 C.3      18        0    0.0000
    243 C         151.3026  103.3957  175.1232 C.3      18        0    0.0000
    244 C         150.5659  104.3298  174.1572 C.3      18        0    0.0000
    245 C         149.2525  103.7174  173.6348 C.3      18        0    0.0000
    246 H         149.5181  106.2027  174.6990 H        18        0    0.0000
    247 H         151.2527  106.1893  175.0095 H        18        0    0.0000
    248 H         150.6958  105.6740  177.1656 H        18        0    0.0000
    249 H         149.0769  105.1224  176.7334 H        18        0    0.0000
    250 H         149.6863  102.9481  176.4606 H        18        0    0.0000
    251 H         152.0215  102.2841  177.4211 H        18        0    0.0000
    252 H         152.2120  103.9816  177.8488 H        18        0    0.0000
    253 H         151.2933  102.3512  174.7950 H        18        0    0.0000
    254 H         152.3518  103.7080  175.2054 H        18        0    0.0000
    255 H         151.2190  104.5713  173.3090 H        18        0    0.0000
    256 H         148.5336  104.4976  173.3609 H        18        0    0.0000
    257 H         148.7880  103.1208  174.4288 H        18        0    0.0000
    258 C         146.7466  100.3192  172.0637 C.3      19        0    0.0000
    259 C         148.1132  100.7846  171.5552 C.3      19        0    0.0000
    260 C         148.1774  102.3039  171.7933 C.3      19        0    0.0000
    261 C         149.4953  102.7883  172.4101 C.3      19        0    0.0000
    262 C         146.9701  102.6016  172.6883 C.3      19        0    0.0000
    263 C         145.9072  101.5876  172.2522 C.3      19        0    0.0000
    264 C         145.1712  102.0224  170.9706 C.3      19        0    0.0000
    265 H         146.2913   99.5839  171.3935 H        19        0    0.0000
    266 H         146.8800   99.8285  173.0364 H        19        0    0.0000
    267 H         148.9108  100.2388  172.0712 H        19        0    0.0000
    268 H         148.2148  100.5711  170.4847 H        19        0    0.0000
    269 H         148.0215  102.8108  170.8302 H        19        0    0.0000
    270 H         150.0813  101.9226  172.7410 H        19        0    0.0000
    271 H         150.0990  103.3128  171.6605 H        19        0    0.0000
    272 H         146.6335  103.6389  172.5911 H        19        0    0.0000
    273 H         147.2255  102.4333  173.7426 H        19        0    0.0000
    274 H         145.1794  101.4465  173.0613 H        19        0    0.0000
    275 H         145.6564  101.6136  170.0775 H        19        0    0.0000
    276 H         145.2090  103.1146  170.8820 H        19        0    0.0000
    277 C         143.6764  101.5897  170.9880 C.3      20        0    0.0000
    278 C         142.9354  101.8526  169.6692 C.3      20        0    0.0000
    279 H         143.6617  100.5086  171.1771 H        20        0    0.0000
    280 H         143.1646  102.0628  171.8342 H        20        0    0.0000
    281 H         141.9182  101.4446  169.6950 H        20        0    0.0000
    282 H         142.8349  102.9385  169.5458 H        20        0    0.0000
    283 C         143.7720  101.6867  164.7483 C.3      21        0    0.0000
    284 C         143.2636  100.8557  165.9254 C.3      21        0    0.0000
    285 C         143.0563  101.8311  167.0970 C.3      21        0    0.0000
    286 C         143.6861  101.3204  168.3996 C.3      21        0    0.0000
    287 C         143.6359  103.1653  166.6023 C.3      21        0    0.0000
    288 C         143.4354  103.1425  165.0817 C.3      21        0    0.0000
    289 C         142.0130  103.5176  164.6274 C.3      21        0    0.0000
    290 H         144.8616  101.5746  164.6792 H        21        0    0.0000
    291 H         143.3514  101.3508  163.7953 H        21        0    0.0000
    292 H         143.9707  100.0523  166.1594 H        21        0    0.0000
    293 H         142.3094  100.3803  165.6695 H        21        0    0.0000
    294 H         141.9742  101.9531  167.2464 H        21        0    0.0000
    295 H         144.7433  101.6062  168.4491 H        21        0    0.0000
    296 H         143.6536  100.2243  168.4120 H        21        0    0.0000
    297 H         143.1598  104.0240  167.0856 H        21        0    0.0000
    298 H         144.7102  103.2186  166.8219 H        21        0    0.0000
    299 H         144.1581  103.8097  164.5949 H        21        0    0.0000
    300 H         141.5065  104.1356  165.3766 H        21        0    0.0000
    301 H         141.4159  102.6040  164.5195 H        21        0    0.0000
    302 C         142.3690  107.7995  162.3700 C.3      22        0    0.0000
    303 C         141.8922  106.8006  163.4232 C.3      22        0    0.0000
    304 C         142.8063  105.5685  163.3082 C.3      22        0    0.0000
    305 C         142.0128  104.2561  163.2590 C.3      22        0    0.0000
    306 C         143.6608  105.8307  162.0585 C.3      22        0    0.0000
    307 C         143.7810  107.3577  161.9766 C.3      22        0    0.0000
    308 C         144.8475  107.9574  162.9111 C.3      22        0    0.0000
    309 H         141.7120  107.7317  161.4935 H        22        0    0.0000
    310 H         142.3214  108.8319  162.7305 H        22        0    0.0000
    311 H         140.8337  106.5620  163.2717 H        22        0    0.0000
    312 H         141.9841  107.2344  164.4259 H        22        0    0.0000
    313 H         143.4660  105.5551  164.1873 H        22        0    0.0000
    314 H         142.4169  103.5956  162.4831 H        22        0    0.0000
    315 H         140.9738  104.4714  162.9817 H        22        0    0.0000
    316 H         144.6301  105.3255  162.1107 H        22        0    0.0000
    317 H         143.1463  105.4626  161.1613 H        22        0    0.0000
    318 H         143.9905  107.6658  160.9443 H        22        0    0.0000
    319 H         145.0659  107.2854  163.7480 H        22        0    0.0000
    320 H         144.4630  108.8870  163.3481 H        22        0    0.0000
    321 C         145.2241  105.5379  159.8514 C.3      23        0    0.0000
    322 C         145.7058  105.9175  161.2539 C.3      23        0    0.0000
    323 C         146.5043  107.2251  161.1060 C.3      23        0    0.0000
    324 C         146.1650  108.2908  162.1555 C.3      23        0    0.0000
    325 C         146.2056  107.6958  159.6790 C.3      23        0    0.0000
    326 C         146.0290  106.4029  158.8754 C.3      23        0    0.0000
    327 C         147.3759  105.7711  158.4755 C.3      23        0    0.0000
    328 H         145.3143  104.4632  159.6668 H        23        0    0.0000
    329 H         144.1599  105.7912  159.7630 H        23        0    0.0000
    330 H         144.8497  106.0158  161.9304 H        23        0    0.0000
    331 H         146.3519  105.1311  161.6611 H        23        0    0.0000
    332 H         147.5752  106.9843  161.1688 H        23        0    0.0000
    333 H         146.9796  108.3524  162.8869 H        23        0    0.0000
    334 H         146.0840  109.2781  161.6863 H        23        0    0.0000
    335 H         147.0003  108.3368  159.2838 H        23        0    0.0000
    336 H         145.2718  108.2722  159.6544 H        23        0    0.0000
    337 H         145.4397  106.6083  157.9727 H        23        0    0.0000
    338 H         147.2926  104.6818  158.3916 H        23        0    0.0000
    339 H         148.1191  105.9746  159.2555 H        23        0    0.0000
    340 C         146.2493  109.7552  157.4490 C.3      24        0    0.0000
    341 C         147.0231  108.5989  158.0668 C.3      24        0    0.0000
    342 C         147.4563  107.7850  156.8431 C.3      24        0    0.0000
    343 C         147.9105  106.3514  157.1341 C.3      24        0    0.0000
    344 C         146.3000  107.9237  155.8335 C.3      24        0    0.0000
    345 C         145.4131  109.0664  156.3655 C.3      24        0    0.0000
    346 C         144.8237  109.9957  155.2999 C.3      24        0    0.0000
    347 H         145.6245  110.2691  158.1860 H        24        0    0.0000
    348 H         146.9490  110.4854  157.0277 H        24        0    0.0000
    349 H         147.8792  108.9470  158.6532 H        24        0    0.0000
    350 H         146.3659  108.0267  158.7308 H        24        0    0.0000
    351 H         148.3221  108.3042  156.4050 H        24        0    0.0000
    352 H         147.5861  105.6997  156.3142 H        24        0    0.0000
    353 H         149.0063  106.3185  157.1480 H        24        0    0.0000
    354 H         145.7033  107.0098  155.7415 H        24        0    0.0000
    355 H         146.7065  108.1287  154.8373 H        24        0    0.0000
    356 H         144.5595  108.5933  156.8740 H        24        0    0.0000
    357 H         143.8480  110.3600  155.6427 H        24        0    0.0000
    358 H         145.4694  110.8756  155.1949 H        24        0    0.0000
    359 C         143.6421  105.7499  154.5139 C.3      25        0    0.0000
    360 C         143.6797  107.2168  154.9146 C.3      25        0    0.0000
    361 C         144.7192  107.8064  153.9592 C.3      25        0    0.0000
    362 C         144.6476  109.3343  153.9000 C.3      25        0    0.0000
    363 C         144.4331  107.0962  152.6234 C.3      25        0    0.0000
    364 C         143.6845  105.7957  152.9812 C.3      25        0    0.0000
    365 C         144.2111  104.5251  152.3021 C.3      25        0    0.0000
    366 H         142.7420  105.2485  154.8832 H        25        0    0.0000
    367 H         144.5106  105.2328  154.9360 H        25        0    0.0000
    368 H         142.6959  107.6772  154.7625 H        25        0    0.0000
    369 H         143.9608  107.3476  155.9640 H        25        0    0.0000
    370 H         145.7173  107.4993  154.3041 H        25        0    0.0000
    371 H         145.4133  109.7227  153.2181 H        25        0    0.0000
    372 H         143.6772  109.6358  153.4879 H        25        0    0.0000
    373 H         143.7934  107.7097  151.9768 H        25        0    0.0000
    374 H         145.3630  106.9190  152.0729 H        25        0    0.0000
    375 H         142.6482  105.9250  152.6350 H        25        0    0.0000
    376 H         143.6369  103.6628  152.6612 H        25        0    0.0000
    377 H         145.2503  104.3611  152.6112 H        25        0    0.0000
    378 C         144.3428  107.9175  149.1865 C.3      26        0    0.0000
    379 C         144.3427  107.1162  150.4907 C.3      26        0    0.0000
    380 C         143.5107  105.8482  150.2281 C.3      26        0    0.0000
    381 C         144.1531  104.5561  150.7478 C.3      26        0    0.0000
    382 C         143.3106  105.8303  148.7092 C.3      26        0    0.0000
    383 C         143.2413  107.3087  148.3119 C.3      26        0    0.0000
    384 C         141.8527  107.9227  148.5725 C.3      26        0    0.0000
    385 H         144.2212  108.9897  149.3671 H        26        0    0.0000
    386 H         145.3121  107.7830  148.6895 H        26        0    0.0000
    387 H         145.3717  106.8948  150.7946 H        26        0    0.0000
    388 H         143.8854  107.7008  151.2975 H        26        0    0.0000
    389 H         142.5264  105.9775  150.7004 H        26        0    0.0000
    390 H         143.5669  103.6954  150.4041 H        26        0    0.0000
    391 H         145.1621  104.4379  150.3364 H        26        0    0.0000
    392 H         142.4156  105.2699  148.4200 H        26        0    0.0000
    393 H         144.1706  105.3589  148.2162 H        26        0    0.0000
    394 H         143.4947  107.4165  147.2496 H        26        0    0.0000
    395 H         141.8042  108.3847  149.5648 H        26        0    0.0000
    396 H         141.0950  107.1304  148.5525 H        26        0    0.0000
    397 C         141.4768  108.9795  147.4937 C.3      27        0    0.0000
    398 C         140.0995  108.7547  146.8534 C.3      27        0    0.0000
    399 H         141.4633  109.9548  147.9968 H        27        0    0.0000
    400 H         142.2662  109.0294  146.7346 H        27        0    0.0000
    401 H         139.4879  108.0702  147.4529 H        27        0    0.0000
    402 H         139.5704  109.7161  146.8376 H        27        0    0.0000
    403 C         142.2389  105.6065  143.6216 C.3      28        0    0.0000
    404 C         140.9127  106.0511  144.2192 C.3      28        0    0.0000
    405 C         141.2967  107.2560  145.0874 C.3      28        0    0.0000
    406 C         140.1612  108.2476  145.3710 C.3      28        0    0.0000
    407 C         142.5542  107.8603  144.4294 C.3      28        0    0.0000
    408 C         142.9106  106.9313  143.2544 C.3      28        0    0.0000
    409 C         144.4111  106.7668  143.0007 C.3      28        0    0.0000
    410 H         142.8268  105.0580  144.3676 H        28        0    0.0000
    411 H         142.0992  104.9582  142.7511 H        28        0    0.0000
    412 H         140.2220  106.3251  143.4144 H        28        0    0.0000
    413 H         140.4429  105.2565  144.8073 H        28        0    0.0000
    414 H         141.6132  106.8603  146.0640 H        28        0    0.0000
    415 H         140.2718  109.1140  144.7081 H        28        0    0.0000
    416 H         139.2036  107.7779  145.1167 H        28        0    0.0000
    417 H         143.3636  107.8925  145.1694 H        28        0    0.0000
    418 H         142.4044  108.8869  144.0789 H        28        0    0.0000
    419 H         142.4264  107.3233  142.3481 H        28        0    0.0000
    420 H         144.9772  107.0128  143.9070 H        28        0    0.0000
    421 H         144.6266  105.7166  142.7706 H        28        0    0.0000
    422 C         148.5805  106.8647  141.1843 C.3      29        0    0.0000
    423 C         147.3868  106.9279  142.1269 C.3      29        0    0.0000
    424 C         146.2087  107.1469  141.1721 C.3      29        0    0.0000
    425 C         144.9175  107.6492  141.8254 C.3      29        0    0.0000
    426 C         146.7652  108.0281  140.0366 C.3      29        0    0.0000
    427 C         148.2977  108.0025  140.1980 C.3      29        0    0.0000
    428 C         149.0985  107.9557  138.8931 C.3      29        0    0.0000
    429 H         149.5277  107.0056  141.7142 H        29        0    0.0000
    430 H         148.6098  105.8878  140.6893 H        29        0    0.0000
    431 H         147.2776  106.0085  142.7105 H        29        0    0.0000
    432 H         147.5112  107.7620  142.8262 H        29        0    0.0000
    433 H         145.9733  106.1687  140.7263 H        29        0    0.0000
    434 H         145.0762  108.6696  142.1940 H        29        0    0.0000
    435 H         144.1302  107.7080  141.0645 H        29        0    0.0000
    436 H         146.4090  109.0627  140.0871 H        29        0    0.0000
    437 H         146.4322  107.6337  139.0705 H        29        0    0.0000
    438 H         148.5778  108.9393  140.7029 H        29        0    0.0000
    439 H         150.1445  108.2064  139.1057 H        29        0    0.0000
    440 H         149.0928  106.9300  138.5057 H        29        0    0.0000
    441 C         146.8071  111.7994  139.4548 C.3      30        0    0.0000
    442 C         147.9012  110.7436  139.4110 C.3      30        0    0.0000
    443 C         147.4430  109.8221  138.2788 C.3      30        0    0.0000
    444 C         148.5701  108.9129  137.7828 C.3      30        0    0.0000
    445 C         146.8849  110.7915  137.2209 C.3      30        0    0.0000
    446 C         146.5297  112.0899  137.9744 C.3      30        0    0.0000
    447 C         145.1427  112.6696  137.6692 C.3      30        0    0.0000
    448 H         147.1264  112.6964  139.9946 H        30        0    0.0000
    449 H         145.9282  111.3947  139.9682 H        30        0    0.0000
    450 H         148.8673  111.2075  139.1774 H        30        0    0.0000
    451 H         147.9970  110.2132  140.3633 H        30        0    0.0000
    452 H         146.6120  109.2057  138.6516 H        30        0    0.0000
    453 H         148.2281  108.3191  136.9268 H        30        0    0.0000
    454 H         149.4026  109.5303  137.4248 H        30        0    0.0000
    455 H         147.6365  111.0180  136.4544 H        30        0    0.0000
    456 H         146.0282  110.3473  136.7032 H        30        0    0.0000
    457 H         147.2595  112.8482  137.6537 H        30        0    0.0000
    458 H         145.0038  113.5900  138.2487 H        30        0    0.0000
    459 H         144.3782  111.9631  138.0139 H        30        0    0.0000
    460 C         146.5443  116.2561  135.2238 C.3      31        0    0.0000
    461 C         146.4008  115.0864  136.1856 C.3      31        0    0.0000
    462 C         145.0607  114.4560  135.7860 C.3      31        0    0.0000
    463 C         144.8924  112.9792  136.1653 C.3      31        0    0.0000
    464 C         144.8773  114.7799  134.2890 C.3      31        0    0.0000
    465 C         146.0731  115.6654  133.8933 C.3      31        0    0.0000
    466 C         145.7530  116.7499  132.8616 C.3      31        0    0.0000
    467 H         145.9011  117.0871  135.5380 H        31        0    0.0000
    468 H         147.5748  116.6206  135.1730 H        31        0    0.0000
    469 H         147.2396  114.3953  136.0492 H        31        0    0.0000
    470 H         146.4034  115.4137  137.2301 H        31        0    0.0000
    471 H         144.2741  115.0054  136.3244 H        31        0    0.0000
    472 H         143.8764  112.6588  135.9055 H        31        0    0.0000
    473 H         145.5771  112.3736  135.5598 H        31        0    0.0000
    474 H         143.9275  115.3118  134.1527 H        31        0    0.0000
    475 H         144.8331  113.8858  133.6583 H        31        0    0.0000
    476 H         146.8691  115.0135  133.5049 H        31        0    0.0000
    477 H         144.6786  116.9691  132.8642 H        31        0    0.0000
    478 H         146.2642  117.6786  133.1417 H        31        0    0.0000
    479 C         146.1912  116.3532  131.4239 C.3      32        0    0.0000
    480 C         146.9125  117.4730  130.6602 C.3      32        0    0.0000
    481 H         146.8850  115.5090  131.5258 H        32        0    0.0000
    482 H         145.3255  115.9816  130.8632 H        32        0    0.0000
    483 H         146.2053  118.0863  130.0895 H        32        0    0.0000
    484 H         147.3826  118.1385  131.3956 H        32        0    0.0000
    485 C         149.0931  119.9311  127.8167 C.3      33        0    0.0000
    486 C         148.4289  119.4124  129.0912 C.3      33        0    0.0000
    487 C         149.0874  118.0595  129.4124 C.3      33        0    0.0000
    488 C         148.0550  116.9652  129.7138 C.3      33        0    0.0000
    489 C         149.9799  117.7608  128.1979 C.3      33        0    0.0000
    490 C         150.3938  119.1383  127.6647 C.3      33        0    0.0000
    491 C         151.5538  119.7915  128.4381 C.3      33        0    0.0000
    492 H         148.4377  119.7170  126.9627 H        33        0    0.0000
    493 H         149.2453  121.0146  127.8436 H        33        0    0.0000
    494 H         147.3447  119.3369  128.9534 H        33        0    0.0000
    495 H         148.6005  120.1105  129.9190 H        33        0    0.0000
    496 H         149.7297  118.1981  130.2936 H        33        0    0.0000
    497 H         148.5445  116.0926  130.1616 H        33        0    0.0000
    498 H         147.6017  116.6266  128.7744 H        33        0    0.0000
    499 H         150.8329  117.1279  128.4613 H        33        0    0.0000
    500 H         149.4063  117.2340  127.4242 H        33        0    0.0000
    501 H         150.6617  119.0678  126.6027 H        33        0    0.0000
    502 H         151.6357  119.3832  129.4512 H        33        0    0.0000
    503 H         151.3552  120.8645  128.5480 H        33        0    0.0000
    504 C         154.1675  121.2038  124.5107 C.3      34        0    0.0000
    505 C         154.2130  121.0179  126.0197 C.3      34        0    0.0000
    506 C         152.9095  120.2722  126.3126 C.3      34        0    0.0000
    507 C         152.9129  119.6273  127.7007 C.3      34        0    0.0000
    508 C         152.7844  119.2800  125.1419 C.3      34        0    0.0000
    509 C         153.6462  119.8550  123.9989 C.3      34        0    0.0000
    510 C         152.9722  119.8930  122.6215 C.3      34        0    0.0000
    511 H         155.1526  121.4443  124.0988 H        34        0    0.0000
    512 H         153.4907  122.0289  124.2637 H        34        0    0.0000
    513 H         155.0854  120.4161  126.3020 H        34        0    0.0000
    514 H         154.2706  121.9742  126.5486 H        34        0    0.0000
    515 H         152.0792  120.9902  126.2439 H        34        0    0.0000
    516 H         153.1544  118.5607  127.6217 H        34        0    0.0000
    517 H         153.7016  120.0840  128.3105 H        34        0    0.0000
    518 H         153.1708  118.2908  125.4172 H        34        0    0.0000
    519 H         151.7347  119.1433  124.8614 H        34        0    0.0000
    520 H         154.5177  119.1909  123.8987 H        34        0    0.0000
    521 H         153.3909  120.7234  122.0406 H        34        0    0.0000
    522 H         151.9052  120.1088  122.7535 H        34        0    0.0000
    523 C         155.3789  117.6938  118.9139 C.3      35        0    0.0000
    524 C         154.5231  117.2864  120.1162 C.3      35        0    0.0000
    525 C         154.4335  118.5231  121.0199 C.3      35        0    0.0000
    526 C         153.1166  118.5804  121.7990 C.3      35        0    0.0000
    527 C         154.6487  119.6842  120.0434 C.3      35        0    0.0000
    528 C         155.7707  119.1598  119.1413 C.3      35        0    0.0000
    529 C         155.9439  119.9264  117.8272 C.3      35        0    0.0000
    530 H         156.2671  117.0596  118.8217 H        35        0    0.0000
    531 H         154.7960  117.5724  117.9930 H        35        0    0.0000
    532 H         154.9639  116.4392  120.6525 H        35        0    0.0000
    533 H         153.5321  116.9707  119.7686 H        35        0    0.0000
    534 H         155.2783  118.4953  121.7234 H        35        0    0.0000
    535 H         153.0668  117.7294  122.4888 H        35        0    0.0000
    536 H         152.2654  118.4829  121.1150 H        35        0    0.0000
    537 H         154.9363  120.6053  120.5603 H        35        0    0.0000
    538 H         153.7389  119.8836  119.4634 H        35        0    0.0000
    539 H         156.7135  119.1785  119.7072 H        35        0    0.0000
    540 H         155.0178  119.8915  117.2417 H        35        0    0.0000
    541 H         156.7184  119.4389  117.2231 H        35        0    0.0000
    542 C         158.3729  122.5772  115.0560 C.3      36        0    0.0000
    543 C         157.8742  121.4578  115.9591 C.3      36        0    0.0000
    544 C         156.7818  122.1457  116.7845 C.3      36        0    0.0000
    545 C         156.3553  121.4067  118.0565 C.3      36        0    0.0000
    546 C         157.2778  123.5904  116.9900 C.3      36        0    0.0000
    547 C         158.4512  123.7752  116.0080 C.3      36        0    0.0000
    548 C         158.5372  125.1472  115.3325 C.3      36        0    0.0000
    549 H         159.3446  122.3413  114.6111 H        36        0    0.0000
    550 H         157.6577  122.7430  114.2428 H        36        0    0.0000
    551 H         157.4842  120.6120  115.3845 H        36        0    0.0000
    552 H         158.6961  121.0937  116.5853 H        36        0    0.0000
    553 H         155.8889  122.2064  116.1441 H        36        0    0.0000
    554 H         157.1784  121.4355  118.7803 H        36        0    0.0000
    555 H         155.5136  121.9391  118.5152 H        36        0    0.0000
    556 H         157.6225  123.7809  118.0121 H        36        0    0.0000
    557 H         156.4548  124.2896  116.8064 H        36        0    0.0000
    558 H         159.3752  123.6570  116.5940 H        36        0    0.0000
    559 H         157.5406  125.6042  115.3221 H        36        0    0.0000
    560 H         159.1783  125.8030  115.9335 H        36        0    0.0000
    561 C         160.8740  128.3586  113.7260 C.3      37        0    0.0000
    562 C         159.7265  127.5630  114.3529 C.3      37        0    0.0000
    563 C         159.2914  126.5201  113.3077 C.3      37        0    0.0000
    564 C         159.0861  125.1100  113.8746 C.3      37        0    0.0000
    565 C         160.3909  126.5661  112.2418 C.3      37        0    0.0000
    566 C         160.8560  128.0262  112.2301 C.3      37        0    0.0000
    567 C         159.9143  128.9363  111.4189 C.3      37        0    0.0000
    568 H         160.7936  129.4282  113.9417 H        37        0    0.0000
    569 H         161.8213  128.0134  114.1598 H        37        0    0.0000
    570 H         160.0550  127.1101  115.2949 H        37        0    0.0000
    571 H         158.8862  128.2266  114.5884 H        37        0    0.0000
    572 H         158.3545  126.8640  112.8466 H        37        0    0.0000
    573 H         158.3696  124.5669  113.2468 H        37        0    0.0000
    574 H         160.0252  124.5453  113.8461 H        37        0    0.0000
    575 H         160.0299  126.2270  111.2654 H        37        0    0.0000
    576 H         161.2287  125.9176  112.5290 H        37        0    0.0000
    577 H         161.8697  128.0861  111.8139 H        37        0    0.0000
    578 H         158.9064  128.9462  111.8485 H        37        0    0.0000
    579 H         159.8217  128.5467  110.3982 H        37        0    0.0000
    580 C         164.0931  130.4451  112.3782 C.3      38        0    0.0000
    581 C         162.8618  129.6638  111.9459 C.3      38        0    0.0000
    582 C         161.7121  130.6546  112.1686 C.3      38        0    0.0000
    583 C         160.4519  130.3942  111.3337 C.3      38        0    0.0000
    584 C         162.3336  132.0574  112.0091 C.3      38        0    0.0000
    585 C         163.8413  131.8349  111.7898 C.3      38        0    0.0000
    586 C         164.7436  132.8997  112.4181 C.3      38        0    0.0000
    587 H         164.1535  130.4835  113.4727 H        38        0    0.0000
    588 H         165.0167  129.9965  111.9996 H        38        0    0.0000
    589 H         162.9614  129.3763  110.8936 H        38        0    0.0000
    590 H         162.7321  128.7486  112.5319 H        38        0    0.0000
    591 H         161.4095  130.5637  113.2225 H        38        0    0.0000
    592 H         159.6607  131.0795  111.6607 H        38        0    0.0000
    593 H         160.6613  130.6342  110.2846 H        38        0    0.0000
    594 H         162.1467  132.6364  112.9221 H        38        0    0.0000
    595 H         161.9021  132.6266  111.1790 H        38        0    0.0000
    596 H         164.0273  131.7891  110.7069 H        38        0    0.0000
    597 H         164.3262  133.2319  113.3761 H        38        0    0.0000
    598 H         165.7240  132.4603  112.6376 H        38        0    0.0000
    599 C         162.1189  133.5329  109.0234 C.3      39        0    0.0000
    600 C         162.8332  133.1928  110.3240 C.3      39        0    0.0000
    601 C         163.8049  134.3649  110.4967 C.3      39        0    0.0000
    602 C         164.9452  134.1323  111.4925 C.3      39        0    0.0000
    603 C         164.2381  134.7468  109.0678 C.3      39        0    0.0000
    604 C         163.2598  134.0202  108.1242 C.3      39        0    0.0000
    605 C         162.8284  134.8099  106.8846 C.3      39        0    0.0000
    606 H         161.6042  132.6646  108.6005 H        39        0    0.0000
    607 H         161.3737  134.3154  109.2042 H        39        0    0.0000
    608 H         162.1362  133.1094  111.1635 H        39        0    0.0000
    609 H         163.3562  132.2359  110.2195 H        39        0    0.0000
    610 H         163.2182  135.2108  110.8857 H        39        0    0.0000
    611 H         165.8837  134.0076  110.9393 H        39        0    0.0000
    612 H         165.0639  135.0258  112.1167 H        39        0    0.0000
    613 H         165.2642  134.4404  108.8377 H        39        0    0.0000
    614 H         164.2085  135.8360  108.9551 H        39        0    0.0000
    615 H         163.7819  133.1236  107.7573 H        39        0    0.0000
    616 H         162.0742  134.2325  106.3368 H        39        0    0.0000
    617 H         162.3429  135.7400  107.2032 H        39        0    0.0000
    618 C         167.5705  135.6666  106.7624 C.3      40        0    0.0000
    619 C         166.5633  135.2371  105.6929 C.3      40        0    0.0000
    620 C         165.3453  134.6648  106.4399 C.3      40        0    0.0000
    621 C         163.9938  135.1614  105.9117 C.3      40        0    0.0000
    622 C         165.5779  135.0529  107.9036 C.3      40        0    0.0000
    623 C         167.1008  135.0252  108.0726 C.3      40        0    0.0000
    624 C         167.6434  133.5980  108.2767 C.3      40        0    0.0000
    625 H         168.5959  135.4042  106.4851 H        40        0    0.0000
    626 H         167.5343  136.7589  106.8634 H        40        0    0.0000
    627 H         166.3086  136.0899  105.0539 H        40        0    0.0000
    628 H         166.9989  134.4666  105.0461 H        40        0    0.0000
    629 H         165.3804  133.5683  106.3678 H        40        0    0.0000
    630 H         164.0293  136.2506  105.7904 H        40        0    0.0000
    631 H         163.7907  134.7379  104.9213 H        40        0    0.0000
    632 H         165.0612  134.3782  108.5938 H        40        0    0.0000
    633 H         165.2073  136.0686  108.0930 H        40        0    0.0000
    634 H         167.3875  135.6506  108.9276 H        40        0    0.0000
    635 H         168.5247  133.5989  108.9275 H        40        0    0.0000
    636 H         167.9613  133.1879  107.3107 H        40        0    0.0000
    637 C         167.2586  129.1648  109.9446 C.3      41        0    0.0000
    638 C         166.3145  130.3653  110.0470 C.3      41        0    0.0000
    639 C         167.1766  131.6226  109.8338 C.3      41        0    0.0000
    640 C         166.5637  132.6494  108.8735 C.3      41        0    0.0000
    641 C         168.5202  131.0839  109.3321 C.3      41        0    0.0000
    642 C         168.6799  129.7312  110.0343 C.3      41        0    0.0000
    643 C         169.1832  129.8770  111.4829 C.3      41        0    0.0000
    644 H         167.0368  128.4065  110.7015 H        41        0    0.0000
    645 H         167.1217  128.6904  108.9644 H        41        0    0.0000
    646 H         165.5085  130.2721  109.3109 H        41        0    0.0000
    647 H         165.8462  130.3989  111.0377 H        41        0    0.0000
    648 H         167.3427  132.0968  110.8117 H        41        0    0.0000
    649 H         166.0676  132.1242  108.0486 H        41        0    0.0000
    650 H         165.7933  133.2388  109.3839 H        41        0    0.0000
    651 H         169.3436  131.7733  109.5449 H        41        0    0.0000
    652 H         168.4886  130.9306  108.2456 H        41        0    0.0000
    653 H         169.3775  129.1022  109.4668 H        41        0    0.0000
    654 H         168.3652  130.1438  112.1611 H        41        0    0.0000
    655 H         169.9168  130.6904  111.5331 H        41        0    0.0000
    656 C         172.9784  129.1951  113.8386 C.3      42        0    0.0000
    657 C         171.7432  129.8215  113.1933 C.3      42        0    0.0000
    658 C         170.6096  128.7887  113.3165 C.3      42        0    0.0000
    659 C         169.8686  128.5750  111.9900 C.3      42        0    0.0000
    660 C         171.2900  127.5246  113.8641 C.3      42        0    0.0000
    661 C         172.4646  128.0419  114.7043 C.3      42        0    0.0000
    662 C         172.0699  128.5187  116.1140 C.3      42        0    0.0000
    663 H         173.6260  128.7932  113.0489 H        42        0    0.0000
    664 H         173.5676  129.9289  114.3975 H        42        0    0.0000
    665 H         171.9547  130.1009  112.1553 H        42        0    0.0000
    666 H         171.4632  130.7396  113.7232 H        42        0    0.0000
    667 H         169.8979  129.1575  114.0686 H        42        0    0.0000
    668 H         169.1202  127.7810  112.0954 H        42        0    0.0000
    669 H         170.5812  128.2390  111.2272 H        42        0    0.0000
    670 H         170.5962  126.8994  114.4345 H        42        0    0.0000
    671 H         171.6802  126.9143  113.0392 H        42        0    0.0000
    672 H         173.2392  127.2689  114.7879 H        42        0    0.0000
    673 H         171.1446  128.0392  116.4512 H        42        0    0.0000
    674 H         171.8722  129.5972  116.0880 H        42        0    0.0000
    675 C         173.1967  128.2617  117.1542 C.3      43        0    0.0000
    676 C         172.7219  128.3112  118.6135 C.3      43        0    0.0000
    677 H         173.5864  127.2548  116.9569 H        43        0    0.0000
    678 H         174.0255  128.9581  116.9806 H        43        0    0.0000
    679 H         172.5782  129.3442  118.9514 H        43        0    0.0000
    680 H         171.7402  127.8236  118.6687 H        43        0    0.0000
    681 C         173.1853  123.8053  119.2023 C.3      44        0    0.0000
    682 C         172.6415  125.2246  119.1179 C.3      44        0    0.0000
    683 C         173.9027  126.0829  119.2609 C.3      44        0    0.0000
    684 C         173.6607  127.5533  119.6150 C.3      44        0    0.0000
    685 C         174.8137  125.3068  120.2321 C.3      44        0    0.0000
    686 C         174.2024  123.8964  120.3445 C.3      44        0    0.0000
    687 C         175.2093  122.7446  120.4218 C.3      44        0    0.0000
    688 H         172.3959  123.0768  119.4117 H        44        0    0.0000
    689 H         173.6565  123.5325  118.2516 H        44        0    0.0000
    690 H         172.1240  125.4086  118.1713 H        44        0    0.0000
    691 H         171.9306  125.3976  119.9334 H        44        0    0.0000
    692 H         174.4058  126.0759  118.2822 H        44        0    0.0000
    693 H         173.2253  127.6127  120.6195 H        44        0    0.0000
    694 H         174.6241  128.0749  119.6580 H        44        0    0.0000
    695 H         174.8639  125.7642  121.2261 H        44        0    0.0000
    696 H         175.8381  125.2972  119.8445 H        44        0    0.0000
    697 H         173.6298  123.8742  121.2840 H        44        0    0.0000
    698 H         174.6795  121.8235  120.6923 H        44        0    0.0000
    699 H         175.6414  122.5791  119.4277 H        44        0    0.0000
    700 C         174.7378  124.7585  124.3350 C.3      45        0    0.0000
    701 C         174.6638  124.1190  122.9461 C.3      45        0    0.0000
    702 C         176.0905  124.1475  122.3822 C.3      45        0    0.0000
    703 C         176.3671  122.9733  121.4392 C.3      45        0    0.0000
    704 C         176.9624  124.1737  123.6420 C.3      45        0    0.0000
    705 C         176.2062  125.1469  124.5526 C.3      45        0    0.0000
    706 C         176.6118  125.0864  126.0278 C.3      45        0    0.0000
    707 H         174.0849  125.6350  124.4074 H        45        0    0.0000
    708 H         174.3978  124.0371  125.0877 H        45        0    0.0000
    709 H         173.9722  124.6611  122.2922 H        45        0    0.0000
    710 H         174.2884  123.0926  123.0364 H        45        0    0.0000
    711 H         176.2264  125.0956  121.8418 H        45        0    0.0000
    712 H         176.4987  122.0584  122.0292 H        45        0    0.0000
    713 H         177.3046  123.1357  120.8946 H        45        0    0.0000
    714 H         177.9789  124.5192  123.4287 H        45        0    0.0000
    715 H         177.0247  123.1775  124.0975 H        45        0    0.0000
    716 H         176.3505  126.1683  124.1711 H        45        0    0.0000
    717 H         175.7456  125.2880  126.6689 H        45        0    0.0000
    718 H         177.3473  125.8733  126.2336 H        45        0    0.0000
    719 C         175.6937  120.3672  127.2897 C.3      46        0    0.0000
    720 C         176.3357  121.2896  126.2648 C.3      46        0    0.0000
    721 C         176.2186  122.6772  126.9082 C.3      46        0    0.0000
    722 C         177.2332  123.7162  126.4141 C.3      46        0    0.0000
    723 C         176.2111  122.4314  128.4311 C.3      46        0    0.0000
    724 C         176.2318  120.9033  128.6179 C.3      46        0    0.0000
    725 C         175.4256  120.3937  129.8151 C.3      46        0    0.0000
    726 H         174.6010  120.4498  127.2431 H        46        0    0.0000
    727 H         175.9656  119.3200  127.1255 H        46        0    0.0000
    728 H         177.3786  120.9935  126.1083 H        46        0    0.0000
    729 H         175.8258  121.2432  125.2974 H        46        0    0.0000
    730 H         175.2236  123.0685  126.6488 H        46        0    0.0000
    731 H         177.9844  123.8796  127.1960 H        46        0    0.0000
    732 H         177.7666  123.3113  125.5459 H        46        0    0.0000
    733 H         175.3016  122.8712  128.8590 H        46        0    0.0000
    734 H         177.0594  122.8953  128.9452 H        46        0    0.0000
    735 H         177.2794  120.5842  128.7188 H        46        0    0.0000
    736 H         174.4170  120.8234  129.8024 H        46        0    0.0000
    737 H         175.3055  119.3068  129.7348 H        46        0    0.0000
    738 C         176.8091  117.4610  132.9956 C.3      47        0    0.0000
    739 C         175.9994  118.2647  131.9877 C.3      47        0    0.0000
    740 C         176.8351  119.5374  131.8151 C.3      47        0    0.0000
    741 C         176.1047  120.7216  131.1745 C.3      47        0    0.0000
    742 C         177.4524  119.8085  133.2010 C.3      47        0    0.0000
    743 C         177.2302  118.5210  134.0187 C.3      47        0    0.0000
    744 C         178.3825  118.1197  134.9447 C.3      47        0    0.0000
    745 H         176.2167  116.6618  133.4516 H        47        0    0.0000
    746 H         177.6711  117.0037  132.4973 H        47        0    0.0000
    747 H         175.8710  117.7260  131.0438 H        47        0    0.0000
    748 H         175.0053  118.4767  132.3965 H        47        0    0.0000
    749 H         177.6681  119.2831  131.1425 H        47        0    0.0000
    750 H         175.3412  121.0900  131.8698 H        47        0    0.0000
    751 H         176.8160  121.5424  131.0239 H        47        0    0.0000
    752 H         176.9859  120.6547  133.7168 H        47        0    0.0000
    753 H         178.5117  120.0626  133.0865 H        47        0    0.0000
    754 H         176.3589  118.7039  134.6654 H        47        0    0.0000
    755 H         178.3860  117.0294  135.0601 H        47        0    0.0000
    756 H         179.3337  118.3894  134.4708 H        47        0    0.0000
    757 C         175.4412  116.8017  137.8256 C.3      48        0    0.0000
    758 C         176.2221  117.2791  136.6107 C.3      48        0    0.0000
    759 C         177.0564  118.4450  137.1563 C.3      48        0    0.0000
    760 C         178.3249  118.7725  136.3585 C.3      48        0    0.0000
    761 C         177.2761  118.1367  138.6517 C.3      48        0    0.0000
    762 C         176.4845  116.8488  138.9438 C.3      48        0    0.0000
    763 C         175.8445  116.7920  140.3330 C.3      48        0    0.0000
    764 H         174.6075  117.4835  138.0330 H        48        0    0.0000
    765 H         175.0340  115.7962  137.6816 H        48        0    0.0000
    766 H         176.8486  116.4632  136.2345 H        48        0    0.0000
    767 H         175.5604  117.5949  135.7980 H        48        0    0.0000
    768 H         176.4219  119.3427  137.1110 H        48        0    0.0000
    769 H         178.4035  119.8604  136.2460 H        48        0    0.0000
    770 H         179.2021  118.4521  136.9330 H        48        0    0.0000
    771 H         176.9003  118.9774  139.2483 H        48        0    0.0000
    772 H         178.3318  118.0094  138.9135 H        48        0    0.0000
    773 H         177.1634  115.9929  138.8176 H        48        0    0.0000
    774 H         175.1435  117.6253  140.4610 H        48        0    0.0000
    775 H         175.2574  115.8703  140.4240 H        48        0    0.0000
    776 C         179.5664  114.9195  141.3753 C.3      49        0    0.0000
    777 C         178.1110  114.6550  140.9802 C.3      49        0    0.0000
    778 C         177.2400  115.4156  141.9861 C.3      49        0    0.0000
    779 C         176.8970  116.8281  141.4765 C.3      49        0    0.0000
    780 C         178.1107  115.3899  143.2488 C.3      49        0    0.0000
    781 C         179.5317  115.6360  142.7355 C.3      49        0    0.0000
    782 C         180.6001  115.1651  143.7287 C.3      49        0    0.0000
    783 H         180.1169  113.9727  141.4150 H        49        0    0.0000
    784 H         180.0601  115.5508  140.6277 H        49        0    0.0000
    785 H         177.9107  113.5796  141.0681 H        49        0    0.0000
    786 H         177.9127  114.9334  139.9401 H        49        0    0.0000
    787 H         176.3073  114.8643  142.1619 H        49        0    0.0000
    788 H         177.8073  117.3030  141.0910 H        49        0    0.0000
    789 H         176.5321  117.4658  142.2887 H        49        0    0.0000
    790 H         178.0418  114.3994  143.7174 H        49        0    0.0000
    791 H         177.8150  116.1286  143.9997 H        49        0    0.0000
    792 H         179.6557  116.7142  142.5619 H        49        0    0.0000
    793 H         181.5045  115.7774  143.6345 H        49        0    0.0000
    794 H         180.8881  114.1340  143.4919 H        49        0    0.0000
    795 C         180.0880  115.2161  145.1968 C.3      50        0    0.0000
    796 C         180.5101  114.0094  146.0471 C.3      50        0    0.0000
    797 H         180.5163  116.1190  145.6506 H        50        0    0.0000
    798 H         178.9996  115.3479  145.2040 H        50        0    0.0000
    799 H         180.5292  113.0891  145.4517 H        50        0    0.0000
    800 H         181.5374  114.1800  146.3939 H        50        0    0.0000
    801 C         180.8927  110.8693  149.3793 C.3      51        0    0.0000
    802 C         181.1399  111.9380  148.3256 C.3      51        0    0.0000
    803 C         179.7269  112.3861  147.9312 C.3      51        0    0.0000
    804 C         179.6304  113.7927  147.3268 C.3      51        0    0.0000
    805 C         178.8484  112.1384  149.1748 C.3      51        0    0.0000
    806 C         179.7625  111.4698  150.2178 C.3      51        0    0.0000
    807 C         179.0736  110.4205  151.0939 C.3      51        0    0.0000
    808 H         180.5780  109.9325  148.9036 H        51        0    0.0000
    809 H         181.7878  110.6671  149.9755 H        51        0    0.0000
    810 H         181.7254  112.7542  148.7623 H        51        0    0.0000
    811 H         181.6984  111.5463  147.4697 H        51        0    0.0000
    812 H         179.3744  111.6908  147.1547 H        51        0    0.0000
    813 H         178.5840  113.9996  147.0724 H        51        0    0.0000
    814 H         179.9206  114.5292  148.0855 H        51        0    0.0000
    815 H         178.0151  111.4808  148.8977 H        51        0    0.0000
    816 H         178.4073  113.0557  149.5788 H        51        0    0.0000
    817 H         180.1884  112.2577  150.8560 H        51        0    0.0000
    818 H         178.6014  109.6551  150.4666 H        51        0    0.0000
    819 H         179.8264  109.9069  151.7037 H        51        0    0.0000
    820 C         177.2471  113.6741  153.8447 C.3      52        0    0.0000
    821 C         178.5369  113.2708  153.1252 C.3      52        0    0.0000
    822 C         178.6466  111.7469  153.2463 C.3      52        0    0.0000
    823 C         178.0049  111.0400  152.0375 C.3      52        0    0.0000
    824 C         177.9455  111.4797  154.5842 C.3      52        0    0.0000
    825 C         176.7377  112.4202  154.5747 C.3      52        0    0.0000
    826 C         176.1922  112.6829  155.9830 C.3      52        0    0.0000
    827 H         177.4502  114.5042  154.5308 H        52        0    0.0000
    828 H         176.4977  114.0237  153.1254 H        52        0    0.0000
    829 H         179.3881  113.7369  153.6376 H        52        0    0.0000
    830 H         178.5547  113.6240  152.0891 H        52        0    0.0000
    831 H         179.7024  111.4539  153.3106 H        52        0    0.0000
    832 H         177.4197  111.7683  151.4631 H        52        0    0.0000
    833 H         177.3052  110.2608  152.3584 H        52        0    0.0000
    834 H         178.6234  111.7395  155.4078 H        52        0    0.0000
    835 H         177.6481  110.4359  154.7220 H        52        0    0.0000
    836 H         175.9464  111.9621  153.9648 H        52        0    0.0000
    837 H         175.1150  112.8822  155.9435 H        52        0    0.0000
    838 H         176.6669  113.5810  156.3955 H        52        0    0.0000
    839 C         176.4654  111.4884  156.9415 C.3      53        0    0.0000
    840 C         175.2193  110.9884  157.6861 C.3      53        0    0.0000
    841 H         177.1896  111.8400  157.6874 H        53        0    0.0000
    842 H         176.9531  110.6761  156.3898 H        53        0    0.0000
    843 H         174.9793  111.7141  158.4738 H        53        0    0.0000
    844 H         174.3477  110.9468  157.0223 H        53        0    0.0000
    845 C         172.6750  108.4560  160.7222 C.3      54        0    0.0000
    846 C         173.1709  108.8915  159.3517 C.3      54        0    0.0000
    847 C         174.5583  109.4612  159.6544 C.3      54        0    0.0000
    848 C         175.4125  109.6016  158.3920 C.3      54        0    0.0000
    849 C         175.1266  108.4980  160.7126 C.3      54        0    0.0000
    850 C         173.9094  107.8063  161.3602 C.3      54        0    0.0000
    851 C         173.9118  107.7701  162.8938 C.3      54        0    0.0000
    852 H         171.8362  107.7566  160.6499 H        54        0    0.0000
    853 H         172.3330  109.3324  161.2831 H        54        0    0.0000
    854 H         173.2359  108.0274  158.6792 H        54        0    0.0000
    855 H         172.5097  109.6333  158.8936 H        54        0    0.0000
    856 H         174.4306  110.4482  160.1223 H        54        0    0.0000
    857 H         176.4728  109.4650  158.6356 H        54        0    0.0000
    858 H         175.1472  108.8068  157.6848 H        54        0    0.0000
    859 H         175.7671  107.7355  160.2519 H        54        0    0.0000
    860 H         175.7474  109.0393  161.4342 H        54        0    0.0000
    861 H         173.9297  106.7583  161.0259 H        54        0    0.0000
    862 H         173.1202  107.0937  163.2374 H        54        0    0.0000
    863 H         173.6595  108.7673  163.2735 H        54        0    0.0000
    864 C         174.5543  104.9275  166.3706 C.3      55        0    0.0000
    865 C         174.0756  105.6841  165.1410 C.3      55        0    0.0000
    866 C         175.1443  106.7674  164.9481 C.3      55        0    0.0000
    867 C         175.2627  107.3247  163.5238 C.3      55        0    0.0000
    868 C         176.4431  106.1822  165.5400 C.3      55        0    0.0000
    869 C         176.0625  104.8157  166.1385 C.3      55        0    0.0000
    870 C         176.8172  104.4444  167.4174 C.3      55        0    0.0000
    871 H         174.3350  105.5017  167.2790 H        55        0    0.0000
    872 H         174.0757  103.9475  166.4607 H        55        0    0.0000
    873 H         174.0225  104.9995  164.2876 H        55        0    0.0000
    874 H         173.0797  106.1138  165.2877 H        55        0    0.0000
    875 H         174.8615  107.6154  165.5896 H        55        0    0.0000
    876 H         175.9453  108.1828  163.5332 H        55        0    0.0000
    877 H         175.7215  106.5656  162.8792 H        55        0    0.0000
    878 H         176.8211  106.8627  166.3132 H        55        0    0.0000
    879 H         177.2410  106.0707  164.7984 H        55        0    0.0000
    880 H         176.2370  104.0454  165.3732 H        55        0    0.0000
    881 H         177.2173  103.4265  167.3385 H        55        0    0.0000
    882 H         177.6785  105.1124  167.5368 H        55        0    0.0000
    883 C         175.9261  104.5473  168.6870 C.3      56        0    0.0000
    884 C         175.6667  103.2009  169.3780 C.3      56        0    0.0000
    885 H         174.9600  104.9557  168.3637 H        56        0    0.0000
    886 H         176.3574  105.2763  169.3830 H        56        0    0.0000
    887 H         175.7508  102.4089  168.6228 H        56        0    0.0000
    888 H         176.4271  102.9902  170.1391 H        56        0    0.0000
    889 C         172.9608  106.5330  169.5873 C.3      57        0    0.0000
    890 C         174.1933  105.6411  169.7561 C.3      57        0    0.0000
    891 C         173.7406  104.4137  170.5672 C.3      57        0    0.0000
    892 C         174.2373  103.0740  170.0098 C.3      57        0    0.0000
    893 C         172.2115  104.5085  170.5820 C.3      57        0    0.0000
    894 C         171.9182  106.0126  170.5828 C.3      57        0    0.0000
    895 C         172.0550  106.6371  171.9844 C.3      57        0    0.0000
    896 H         173.2038  107.5921  169.7155 H        57        0    0.0000
    897 H         172.5751  106.4128  168.5668 H        57        0    0.0000
    898 H         174.6013  105.3758  168.7746 H        57        0    0.0000
    899 H         174.9802  106.1767  170.2999 H        57        0    0.0000
    900 H         174.0998  104.5309  171.5996 H        57        0    0.0000
    901 H         174.2793  102.3367  170.8203 H        57        0    0.0000
    902 H         173.5348  102.6858  169.2633 H        57        0    0.0000
    903 H         171.7768  103.9901  171.4428 H        57        0    0.0000
    904 H         171.7918  104.0545  169.6750 H        57        0    0.0000
    905 H         170.9048  106.1901  170.2012 H        57        0    0.0000
    906 H         171.8935  107.7203  171.9525 H        57        0    0.0000
    907 H         173.0742  106.4777  172.3559 H        57        0    0.0000
    908 C         171.0639  105.9986  173.0003 C.3      58        0    0.0000
    909 C         170.2774  107.0219  173.8318 C.3      58        0    0.0000
    910 H         170.3451  105.4109  172.4151 H        58        0    0.0000
    911 H         171.5992  105.2895  173.6427 H        58        0    0.0000
    912 H         170.8293  107.3120  174.7336 H        58        0    0.0000
    913 H         170.1600  107.9319  173.2296 H        58        0    0.0000
    914 C         167.7234  104.5558  176.5841 C.3      59        0    0.0000
    915 C         169.0672  104.6169  175.8531 C.3      59        0    0.0000
    916 C         168.7601  105.0222  174.4073 C.3      59        0    0.0000
    917 C         168.8346  106.5498  174.2245 C.3      59        0    0.0000
    918 C         167.3632  104.4245  174.1960 C.3      59        0    0.0000
    919 C         166.6302  104.6974  175.5119 C.3      59        0    0.0000
    920 C         165.4233  103.7732  175.7096 C.3      59        0    0.0000
    921 H         167.6463  103.6135  177.1385 H        59        0    0.0000
    922 H         167.6445  105.3692  177.3144 H        59        0    0.0000
    923 H         169.5195  103.6170  175.8605 H        59        0    0.0000
    924 H         169.7726  105.2908  176.3499 H        59        0    0.0000
    925 H         169.4786  104.5468  173.7272 H        59        0    0.0000
    926 H         168.5569  107.0393  175.1658 H        59        0    0.0000
    927 H         168.1194  106.8951  173.4703 H        59        0    0.0000
    928 H         167.4524  103.3433  174.0274 H        59        0    0.0000
    929 H         166.8315  104.8468  173.3381 H        59        0    0.0000
    930 H         166.2842  105.7405  175.5061 H        59        0    0.0000
    931 H         165.0527  103.4175  174.7411 H        59        0    0.0000
    932 H         164.6061  104.3364  176.1754 H        59        0    0.0000
    933 C         166.0605  102.7093  180.3875 C.3      60        0    0.0000
    934 C         165.2343  102.9025  179.1252 C.3      60        0    0.0000
    935 C         166.2858  102.9281  178.0087 C.3      60        0    0.0000
    936 C         165.7692  102.5552  176.6134 C.3      60        0    0.0000
    937 C         167.4649  102.0790  178.5268 C.3      60        0    0.0000
    938 C         167.0955  101.6653  179.9631 C.3      60        0    0.0000
    939 C         168.2773  101.5967  180.9335 C.3      60        0    0.0000
    940 H         166.5432  103.6518  180.6734 H        60        0    0.0000
    941 H         165.4496  102.3681  181.2288 H        60        0    0.0000
    942 H         164.5343  102.0672  179.0144 H        60        0    0.0000
    943 H         164.6494  103.8271  179.1573 H        60        0    0.0000
    944 H         166.6525  103.9630  177.9366 H        60        0    0.0000
    945 H         166.5256  101.9450  176.1054 H        60        0    0.0000
    946 H         164.8770  101.9265  176.7179 H        60        0    0.0000
    947 H         168.3772  102.6883  178.5115 H        60        0    0.0000
    948 H         167.6629  101.1967  177.9092 H        60        0    0.0000
    949 H         166.5986  100.6852  179.9207 H        60        0    0.0000
    950 H         168.0935  100.8346  181.7001 H        60        0    0.0000
    951 H         169.1759  101.2842  180.3884 H        60        0    0.0000
    952 C         167.6752  102.4747  185.2586 C.3      61        0    0.0000
    953 C         167.8199  101.9335  183.8338 C.3      61        0    0.0000
    954 C         167.7375  103.1489  182.9010 C.3      61        0    0.0000
    955 C         168.5616  102.9598  181.6245 C.3      61        0    0.0000
    956 C         168.1996  104.3052  183.7940 C.3      61        0    0.0000
    957 C         167.5113  103.9946  185.1273 C.3      61        0    0.0000
    958 C         168.0835  104.7479  186.3314 C.3      61        0    0.0000
    959 H         166.8151  102.0297  185.7703 H        61        0    0.0000
    960 H         168.5685  102.2162  185.8397 H        61        0    0.0000
    961 H         167.0354  101.2056  183.6007 H        61        0    0.0000
    962 H         168.7822  101.4168  183.7356 H        61        0    0.0000
    963 H         166.6814  103.3086  182.6389 H        61        0    0.0000
    964 H         169.6287  103.0096  181.8719 H        61        0    0.0000
    965 H         168.3624  103.7750  180.9190 H        61        0    0.0000
    966 H         167.8959  105.2777  183.3937 H        61        0    0.0000
    967 H         169.2912  104.3035  183.9055 H        61        0    0.0000
    968 H         166.4387  104.2162  185.0283 H        61        0    0.0000
    969 H         168.2565  105.7996  186.0749 H        61        0    0.0000
    970 H         169.0592  104.3221  186.5944 H        61        0    0.0000
    971 C         167.1568  104.6647  187.5753 C.3      62        0    0.0000
    972 C         167.9016  104.4004  188.8916 C.3      62        0    0.0000
    973 H         166.6512  105.6353  187.6591 H        62        0    0.0000
    974 H         166.3735  103.9172  187.4031 H        62        0    0.0000
    975 H         168.6669  103.6252  188.7682 H        62        0    0.0000
    976 H         168.4294  105.3201  189.1747 H        62        0    0.0000
    977 C         168.8511  103.2861  193.1500 C.3      63        0    0.0000
    978 C         168.9134  103.8385  191.7268 C.3      63        0    0.0000
    979 C         167.5425  104.4753  191.4405 C.3      63        0    0.0000
    980 C         166.9628  104.0297  190.0915 C.3      63        0    0.0000
    981 C         166.6749  104.0964  192.6506 C.3      63        0    0.0000
    982 C         167.6604  103.9766  193.8200 C.3      63        0    0.0000
    983 C         168.0614  105.3242  194.4474 C.3      63        0    0.0000
    984 H         168.6627  102.2058  193.1033 H        63        0    0.0000
    985 H         169.7939  103.4268  193.6878 H        63        0    0.0000
    986 H         169.1702  103.0427  191.0191 H        63        0    0.0000
    987 H         169.6966  104.6021  191.6507 H        63        0    0.0000
    988 H         167.6732  105.5667  191.4309 H        63        0    0.0000
    989 H         165.9729  104.4746  189.9367 H        63        0    0.0000
    990 H         166.8232  102.9420  190.0990 H        63        0    0.0000
    991 H         165.8807  104.8274  192.8311 H        63        0    0.0000
    992 H         166.1944  103.1233  192.4850 H        63        0    0.0000
    993 H         167.2454  103.3244  194.5990 H        63        0    0.0000
    994 H         167.9134  106.1501  193.7434 H        63        0    0.0000
    995 H         169.1313  105.3059  194.6883 H        63        0    0.0000
    996 C         167.2538  104.1562  199.2384 C.3      64        0    0.0000
    997 C         167.7804  105.1663  198.2155 C.3      64        0    0.0000
    998 C         167.5278  104.5506  196.8330 C.3      64        0    0.0000
    999 C         167.2785  105.6135  195.7594 C.3      64        0    0.0000
   1000 C         166.3474  103.6061  197.0828 C.3      64        0    0.0000
   1001 C         166.7050  102.9723  198.4313 C.3      64        0    0.0000
   1002 C         165.5387  102.2765  199.1385 C.3      64        0    0.0000
   1003 H         168.0441  103.8316  199.9238 H        64        0    0.0000
   1004 H         166.4702  104.6259  199.8451 H        64        0    0.0000
   1005 H         168.8461  105.3697  198.3662 H        64        0    0.0000
   1006 H         167.2481  106.1176  198.3345 H        64        0    0.0000
   1007 H         168.4070  103.9488  196.5602 H        64        0    0.0000
   1008 H         167.5883  106.5936  196.1414 H        64        0    0.0000
   1009 H         166.2074  105.6852  195.5368 H        64        0    0.0000
   1010 H         166.2493  102.8560  196.2915 H        64        0    0.0000
   1011 H         165.4049  104.1640  197.1484 H        64        0    0.0000
   1012 H         167.5238  102.2549  198.2755 H        64        0    0.0000
   1013 H         164.7814  101.9672  198.4086 H        64        0    0.0000
   1014 H         165.0517  102.9865  199.8177 H        64        0    0.0000
   1015 C         165.9984  101.0418  199.9614 C.3      65        0    0.0000
   1016 C         165.1399   99.7886  199.7383 C.3      65        0    0.0000
   1017 H         165.9243  101.3213  201.0201 H        65        0    0.0000
   1018 H         167.0578  100.8400  199.7640 H        65        0    0.0000
   1019 H         164.5708   99.5978  200.6571 H        65        0    0.0000
   1020 H         164.4041   99.9459  198.9409 H        65        0    0.0000
   1021 C         168.9049   96.6535  200.7774 C.3      66        0    0.0000
   1022 C         167.4028   96.9196  200.9031 C.3      66        0    0.0000
   1023 C         167.1656   98.3526  200.3936 C.3      66        0    0.0000
   1024 C         165.9703   98.4918  199.4427 C.3      66        0    0.0000
   1025 C         168.4888   98.7455  199.7288 C.3      66        0    0.0000
   1026 C         169.5620   98.0186  200.5462 C.3      66        0    0.0000
   1027 C         169.9033   98.7557  201.8551 C.3      66        0    0.0000
   1028 H         169.2974   96.1158  201.6458 H        66        0    0.0000
   1029 H         169.0786   96.0174  199.8999 H        66        0    0.0000
   1030 H         166.8404   96.1684  200.3378 H        66        0    0.0000
   1031 H         167.0876   96.8401  201.9501 H        66        0    0.0000
   1032 H         167.0132   99.0072  201.2636 H        66        0    0.0000
   1033 H         166.3323   98.5385  198.4088 H        66        0    0.0000
   1034 H         165.3210   97.6115  199.5126 H        66        0    0.0000
   1035 H         168.6316   99.8308  199.7094 H        66        0    0.0000
   1036 H         168.5155   98.3890  198.6909 H        66        0    0.0000
   1037 H         170.4715   97.9066  199.9423 H        66        0    0.0000
   1038 H         169.2215   98.4653  202.6621 H        66        0    0.0000
   1039 H         169.7806   99.8352  201.7074 H        66        0    0.0000
   1040 C         171.0304   94.8512  202.6239 C.3      67        0    0.0000
   1041 C         170.6641   96.0891  201.8066 C.3      67        0    0.0000
   1042 C         171.8379   97.0736  201.9472 C.3      67        0    0.0000
   1043 C         171.3707   98.4916  202.3009 C.3      67        0    0.0000
   1044 C         172.7584   96.4369  202.9999 C.3      67        0    0.0000
   1045 C         172.5427   94.9256  202.8497 C.3      67        0    0.0000
   1046 C         173.3252   94.2894  201.6863 C.3      67        0    0.0000
   1047 H         170.5176   94.9014  203.5930 H        67        0    0.0000
   1048 H         170.7090   93.9258  202.1358 H        67        0    0.0000
   1049 H         169.7127   96.5076  202.1529 H        67        0    0.0000
   1050 H         170.5331   95.8214  200.7515 H        67        0    0.0000
   1051 H         172.3712   97.1016  200.9865 H        67        0    0.0000
   1052 H         172.0343   99.2360  201.8457 H        67        0    0.0000
   1053 H         171.4337   98.6333  203.3866 H        67        0    0.0000
   1054 H         173.8024   96.7371  202.8676 H        67        0    0.0000
   1055 H         172.4533   96.7444  204.0086 H        67        0    0.0000
   1056 H         172.8026   94.4118  203.7839 H        67        0    0.0000
   1057 H         174.2073   94.8850  201.4280 H        67        0    0.0000
   1058 H         172.6894   94.2677  200.7929 H        67        0    0.0000
   1059 C         173.7586   92.8300  202.0032 C.3      68        0    0.0000
   1060 C         175.2306   92.5330  201.6831 C.3      68        0    0.0000
   1061 H         173.6076   92.6814  203.0801 H        68        0    0.0000
   1062 H         173.0897   92.1270  201.4930 H        68        0    0.0000
   1063 H         175.3573   91.5145  201.2977 H        68        0    0.0000
   1064 H         175.5490   93.2132  200.8828 H        68        0    0.0000
   1065 C         177.3696   92.4374  205.9414 C.3      69        0    0.0000
   1066 C         177.0875   91.4081  204.8437 C.3      69        0    0.0000
   1067 C         175.8360   91.8915  204.1027 C.3      69        0    0.0000
   1068 C         176.2045   92.7663  202.8896 C.3      69        0    0.0000
   1069 C         175.0723   92.6294  205.2095 C.3      69        0    0.0000
   1070 C         176.1577   93.3830  205.9824 C.3      69        0    0.0000
   1071 C         175.7041   93.7732  207.3938 C.3      69        0    0.0000
   1072 H         177.5329   91.9248  206.8962 H        69        0    0.0000
   1073 H         178.2819   93.0013  205.7157 H        69        0    0.0000
   1074 H         176.8783   90.4387  205.3135 H        69        0    0.0000
   1075 H         177.9507   91.2652  204.1856 H        69        0    0.0000
   1076 H         175.2531   91.0288  203.7554 H        69        0    0.0000
   1077 H         177.2219   92.5192  202.5630 H        69        0    0.0000
   1078 H         176.2109   93.8292  203.1537 H        69        0    0.0000
   1079 H         174.5801   91.8965  205.8621 H        69        0    0.0000
   1080 H         174.2978   93.3039  204.8323 H        69        0    0.0000
   1081 H         176.4112   94.2950  205.4239 H        69        0    0.0000
   1082 H         175.2259   94.7595  207.3816 H        69        0    0.0000
   1083 H         176.5799   93.8524  208.0487 H        69        0    0.0000
   1084 C         175.0900   89.2459  206.5152 C.3      70        0    0.0000
   1085 C         175.0311   90.7573  206.3425 C.3      70        0    0.0000
   1086 C         175.1464   91.2704  207.7816 C.3      70        0    0.0000
   1087 C         174.7230   92.7268  207.9961 C.3      70        0    0.0000
   1088 C         174.4063   90.2294  208.6441 C.3      70        0    0.0000
   1089 C         174.1904   89.0058  207.7321 C.3      70        0    0.0000
   1090 C         174.3506   87.6412  208.4091 C.3      70        0    0.0000
   1091 H         174.7292   88.7185  205.6267 H        70        0    0.0000
   1092 H         176.1241   88.9345  206.6993 H        70        0    0.0000
   1093 H         175.8417   91.1280  205.7075 H        70        0    0.0000
   1094 H         174.0795   91.0399  205.8791 H        70        0    0.0000
   1095 H         176.2101   91.2104  208.0573 H        70        0    0.0000
   1096 H         173.7308   92.8798  207.5555 H        70        0    0.0000
   1097 H         174.6228   92.9162  209.0714 H        70        0    0.0000
   1098 H         173.4383   90.5894  209.0088 H        70        0    0.0000
   1099 H         175.0043   89.9982  209.5322 H        70        0    0.0000
   1100 H         173.1507   89.0574  207.3752 H        70        0    0.0000
   1101 H         173.5182   86.9932  208.1100 H        70        0    0.0000
   1102 H         175.2678   87.1649  208.0429 H        70        0    0.0000
   1103 C         174.4045   87.7007  209.9653 C.3      71        0    0.0000
   1104 C         173.2910   86.9030  210.6590 C.3      71        0    0.0000
   1105 H         174.2929   88.7559  210.2460 H        71        0    0.0000
   1106 H         175.3958   87.3871  210.3129 H        71        0    0.0000
   1107 H         172.3531   87.0880  210.1198 H        71        0    0.0000
   1108 H         173.4780   85.8243  210.6016 H        71        0    0.0000
   1109 C         173.0448   87.3179  212.1510 C.3      72        0    0.0000
   1110 C         172.7731   86.1346  213.0909 C.3      72        0    0.0000
   1111 H         172.1604   87.9677  212.1573 H        72        0    0.0000
   1112 H         173.8836   87.9267  212.5083 H        72        0    0.0000
   1113 H         171.7625   85.7600  212.8833 H        72        0    0.0000
   1114 H         173.4614   85.3039  212.8956 H        72        0    0.0000
   1115 C         173.8565   83.4336  216.5342 C.3      73        0    0.0000
   1116 C         173.6145   84.1656  215.2116 C.3      73        0    0.0000
   1117 C         172.6143   85.2882  215.5175 C.3      73        0    0.0000
   1118 C         172.8137   86.5078  214.6133 C.3      73        0    0.0000
   1119 C         172.8374   85.5564  217.0096 C.3      73        0    0.0000
   1120 C         172.9926   84.1444  217.5842 C.3      73        0    0.0000
   1121 C         173.6134   84.0893  218.9828 C.3      73        0    0.0000
   1122 H         173.5910   82.3736  216.4594 H        73        0    0.0000
   1123 H         174.9217   83.4844  216.7899 H        73        0    0.0000
   1124 H         173.2224   83.4883  214.4452 H        73        0    0.0000
   1125 H         174.5642   84.5655  214.8365 H        73        0    0.0000
   1126 H         171.5988   84.8889  215.3809 H        73        0    0.0000
   1127 H         173.7847   86.9671  214.8339 H        73        0    0.0000
   1128 H         172.0503   87.2660  214.8236 H        73        0    0.0000
   1129 H         171.9947   86.0908  217.4595 H        73        0    0.0000
   1130 H         173.7472   86.1482  217.1707 H        73        0    0.0000
   1131 H         172.0047   83.6612  217.5990 H        73        0    0.0000
   1132 H         172.8815   84.4032  219.7363 H        73        0    0.0000
   1133 H         174.4471   84.7995  219.0369 H        73        0    0.0000
   1134 C         173.2529   79.2994  217.8348 C.3      74        0    0.0000
   1135 C         173.1458   80.3143  218.9644 C.3      74        0    0.0000
   1136 C         173.7419   81.5816  218.3429 C.3      74        0    0.0000
   1137 C         174.1462   82.6740  219.3376 C.3      74        0    0.0000
   1138 C         174.8625   81.0864  217.4079 C.3      74        0    0.0000
   1139 C         174.6509   79.5663  217.2672 C.3      74        0    0.0000
   1140 C         174.9157   78.9889  215.8734 C.3      74        0    0.0000
   1141 H         173.1452   78.2722  218.1965 H        74        0    0.0000
   1142 H         172.4658   79.4841  217.0955 H        74        0    0.0000
   1143 H         172.1097   80.4615  219.2848 H        74        0    0.0000
   1144 H         173.7232   79.9682  219.8287 H        74        0    0.0000
   1145 H         172.9631   82.0178  217.6993 H        74        0    0.0000
   1146 H         173.7839   82.4012  220.3358 H        74        0    0.0000
   1147 H         175.2402   82.7150  219.3998 H        74        0    0.0000
   1148 H         175.8649   81.2813  217.8043 H        74        0    0.0000
   1149 H         174.8009   81.6153  216.4506 H        74        0    0.0000
   1150 H         175.3687   79.0831  217.9471 H        74        0    0.0000
   1151 H         175.7678   78.3009  215.9268 H        74        0    0.0000
   1152 H         174.0493   78.3937  215.5614 H        74        0    0.0000
   1153 C         175.2060   80.0611  214.7806 C.3      75        0    0.0000
   1154 C         176.6946   80.4008  214.6197 C.3      75        0    0.0000
   1155 H         174.8460   79.6493  213.8291 H        75        0    0.0000
   1156 H         174.6107   80.9604  214.9780 H        75        0    0.0000
   1157 H         177.2803   79.5123  214.3563 H        75        0    0.0000
   1158 H         176.7951   81.1025  213.7817 H        75        0    0.0000
   1159 C         176.4398   82.4688  219.1603 C.3      76        0    0.0000
   1160 C         176.6972   82.7803  217.6868 C.3      76        0    0.0000
   1161 C         176.2667   81.5358  216.8912 C.3      76        0    0.0000
   1162 C         177.3280   81.0987  215.8729 C.3      76        0    0.0000
   1163 C         175.9516   80.4781  217.9601 C.3      76        0    0.0000
   1164 C         175.4768   81.2790  219.1792 C.3      76        0    0.0000
   1165 C         174.0076   81.7329  219.1023 C.3      76        0    0.0000
   1166 H         177.3866   82.1747  219.6313 H        76        0    0.0000
   1167 H         176.0645   83.3403  219.7058 H        76        0    0.0000
   1168 H         177.7489   83.0439  217.5301 H        76        0    0.0000
   1169 H         176.0986   83.6432  217.3718 H        76        0    0.0000
   1170 H         175.3380   81.7818  216.3571 H        76        0    0.0000
   1171 H         178.0528   80.4245  216.3437 H        76        0    0.0000
   1172 H         177.8880   81.9784  215.5334 H        76        0    0.0000
   1173 H         175.2138   79.7490  217.6111 H        76        0    0.0000
   1174 H         176.8607   79.9236  218.2269 H        76        0    0.0000
   1175 H         175.6275   80.6961  220.0968 H        76        0    0.0000
   1176 H         173.7859   82.1998  218.1367 H        76        0    0.0000
   1177 H         173.8252   82.4963  219.8684 H        76        0    0.0000
   1178 H         173.3151   80.9093  219.2760 H        76        0    0.0000
   1179 H         173.0845   96.6724  231.4765 H         0        0    0.0000
@<TRIPOS>BOND
     1     1     2      1
     2     1     6      1
     3     1     8      1
     4     1     9      1
     5     2     3      1
     6     2    10      1
     7     2    11      1
     8     3     4      1
     9     3     5      1
    10     3    12      1
    11     4    13      1
    12     4    14      1
    13     4  1179      H
    14     5     6      1
    15     5    15      1
    16     5    16      1
    17     6     7      1
    18     6    17      1
    19     7    18      1
    20     7    19      1
    21     7    23      1
    22    20    21      1
    23    20    25      1
    24    20    27      1
    25    20    28      1
    26    21    22      1
    27    21    29      1
    28    21    30      1
    29    22    23      1
    30    22    24      1
    31    22    31      1
    32    23    32      1
    33    23    33      1
    34    24    25      1
    35    24    34      1
    36    24    35      1
    37    25    26      1
    38    25    36      1
    39    26    37      1
    40    26    38      1
    41    26    39      1
    42    39    40      1
    43    39    41      1
    44    39    42      1
    45    40    43      1
    46    40    44      1
    47    40    48      1
    48    45    46      1
    49    45    50      1
    50    45    52      1
    51    45    53      1
    52    46    47      1
    53    46    54      1
    54    46    55      1
    55    47    48      1
    56    47    49      1
    57    47    56      1
    58    48    57      1
    59    48    58      1
    60    49    50      1
    61    49    59      1
    62    49    60      1
    63    50    51      1
    64    50    61      1
    65    51    62      1
    66    51    63      1
    67    51    64      1
    68    64    65      1
    69    64    66      1
    70    64    67      1
    71    65    68      1
    72    65    69      1
    73    65    73      1
    74    70    71      1
    75    70    75      1
    76    70    77      1
    77    70    78      1
    78    71    72      1
    79    71    79      1
    80    71    80      1
    81    72    73      1
    82    72    74      1
    83    72    81      1
    84    73    82      1
    85    73    83      1
    86    74    75      1
    87    74    84      1
    88    74    85      1
    89    75    76      1
    90    75    86      1
    91    76    87      1
    92    76    88      1
    93    76    92      1
    94    89    90      1
    95    89    94      1
    96    89    96      1
    97    89    97      1
    98    90    91      1
    99    90    98      1
   100    90    99      1
   101    91    92      1
   102    91    93      1
   103    91   100      1
   104    92   101      1
   105    92   102      1
   106    93    94      1
   107    93   103      1
   108    93   104      1
   109    94    95      1
   110    94   105      1
   111    95   106      1
   112    95   107      1
   113    95   108      1
   114   108   109      1
   115   108   110      1
   116   108   111      1
   117   109   112      1
   118   109   113      1
   119   109   114      1
   120   114   115      1
   121   114   116      1
   122   114   117      1
   123   115   118      1
   124   115   119      1
   125   115   120      1
   126   120   121      1
   127   120   122      1
   128   120   123      1
   129   121   124      1
   130   121   125      1
   131   121   126      1
   132   126   127      1
   133   126   128      1
   134   126   129      1
   135   127   130      1
   136   127   131      1
   137   127   135      1
   138   132   133      1
   139   132   137      1
   140   132   139      1
   141   132   140      1
   142   133   134      1
   143   133   141      1
   144   133   142      1
   145   134   135      1
   146   134   136      1
   147   134   143      1
   148   135   144      1
   149   135   145      1
   150   136   137      1
   151   136   146      1
   152   136   147      1
   153   137   138      1
   154   137   148      1
   155   138   149      1
   156   138   150      1
   157   138   154      1
   158   151   152      1
   159   151   156      1
   160   151   158      1
   161   151   159      1
   162   152   153      1
   163   152   160      1
   164   152   161      1
   165   153   154      1
   166   153   155      1
   167   153   162      1
   168   154   163      1
   169   154   164      1
   170   155   156      1
   171   155   165      1
   172   155   166      1
   173   156   157      1
   174   156   167      1
   175   157   168      1
   176   157   169      1
   177   157   170      1
   178   170   171      1
   179   170   172      1
   180   170   173      1
   181   171   174      1
   182   171   175      1
   183   171   179      1
   184   176   177      1
   185   176   181      1
   186   176   183      1
   187   176   184      1
   188   177   178      1
   189   177   185      1
   190   177   186      1
   191   178   179      1
   192   178   180      1
   193   178   187      1
   194   179   188      1
   195   179   189      1
   196   180   181      1
   197   180   190      1
   198   180   191      1
   199   181   182      1
   200   181   192      1
   201   182   193      1
   202   182   194      1
   203   182   195      1
   204   195   196      1
   205   195   197      1
   206   195   198      1
   207   196   199      1
   208   196   200      1
   209   196   204      1
   210   201   202      1
   211   201   206      1
   212   201   208      1
   213   201   209      1
   214   202   203      1
   215   202   210      1
   216   202   211      1
   217   203   204      1
   218   203   205      1
   219   203   212      1
   220   204   213      1
   221   204   214      1
   222   205   206      1
   223   205   215      1
   224   205   216      1
   225   206   207      1
   226   206   217      1
   227   207   218      1
   228   207   219      1
   229   207   223      1
   230   220   221      1
   231   220   225      1
   232   220   227      1
   233   220   228      1
   234   221   222      1
   235   221   229      1
   236   221   230      1
   237   222   223      1
   238   222   224      1
   239   222   231      1
   240   223   232      1
   241   223   233      1
   242   224   225      1
   243   224   234      1
   244   224   235      1
   245   225   226      1
   246   225   236      1
   247   226   237      1
   248   226   238      1
   249   226   242      1
   250   239   240      1
   251   239   244      1
   252   239   246      1
   253   239   247      1
   254   240   241      1
   255   240   248      1
   256   240   249      1
   257   241   242      1
   258   241   243      1
   259   241   250      1
   260   242   251      1
   261   242   252      1
   262   243   244      1
   263   243   253      1
   264   243   254      1
   265   244   245      1
   266   244   255      1
   267   245   256      1
   268   245   257      1
   269   245   261      1
   270   258   259      1
   271   258   263      1
   272   258   265      1
   273   258   266      1
   274   259   260      1
   275   259   267      1
   276   259   268      1
   277   260   261      1
   278   260   262      1
   279   260   269      1
   280   261   270      1
   281   261   271      1
   282   262   263      1
   283   262   272      1
   284   262   273      1
   285   263   264      1
   286   263   274      1
   287   264   275      1
   288   264   276      1
   289   264   277      1
   290   277   278      1
   291   277   279      1
   292   277   280      1
   293   278   281      1
   294   278   282      1
   295   278   286      1
   296   283   284      1
   297   283   288      1
   298   283   290      1
   299   283   291      1
   300   284   285      1
   301   284   292      1
   302   284   293      1
   303   285   286      1
   304   285   287      1
   305   285   294      1
   306   286   295      1
   307   286   296      1
   308   287   288      1
   309   287   297      1
   310   287   298      1
   311   288   289      1
   312   288   299      1
   313   289   300      1
   314   289   301      1
   315   289   305      1
   316   302   303      1
   317   302   307      1
   318   302   309      1
   319   302   310      1
   320   303   304      1
   321   303   311      1
   322   303   312      1
   323   304   305      1
   324   304   306      1
   325   304   313      1
   326   305   314      1
   327   305   315      1
   328   306   307      1
   329   306   316      1
   330   306   317      1
   331   307   308      1
   332   307   318      1
   333   308   319      1
   334   308   320      1
   335   308   324      1
   336   321   322      1
   337   321   326      1
   338   321   328      1
   339   321   329      1
   340   322   323      1
   341   322   330      1
   342   322   331      1
   343   323   324      1
   344   323   325      1
   345   323   332      1
   346   324   333      1
   347   324   334      1
   348   325   326      1
   349   325   335      1
   350   325   336      1
   351   326   327      1
   352   326   337      1
   353   327   338      1
   354   327   339      1
   355   327   343      1
   356   340   341      1
   357   340   345      1
   358   340   347      1
   359   340   348      1
   360   341   342      1
   361   341   349      1
   362   341   350      1
   363   342   343      1
   364   342   344      1
   365   342   351      1
   366   343   352      1
   367   343   353      1
   368   344   345      1
   369   344   354      1
   370   344   355      1
   371   345   346      1
   372   345   356      1
   373   346   357      1
   374   346   358      1
   375   346   362      1
   376   359   360      1
   377   359   364      1
   378   359   366      1
   379   359   367      1
   380   360   361      1
   381   360   368      1
   382   360   369      1
   383   361   362      1
   384   361   363      1
   385   361   370      1
   386   362   371      1
   387   362   372      1
   388   363   364      1
   389   363   373      1
   390   363   374      1
   391   364   365      1
   392   364   375      1
   393   365   376      1
   394   365   377      1
   395   365   381      1
   396   378   379      1
   397   378   383      1
   398   378   385      1
   399   378   386      1
   400   379   380      1
   401   379   387      1
   402   379   388      1
   403   380   381      1
   404   380   382      1
   405   380   389      1
   406   381   390      1
   407   381   391      1
   408   382   383      1
   409   382   392      1
   410   382   393      1
   411   383   384      1
   412   383   394      1
   413   384   395      1
   414   384   396      1
   415   384   397      1
   416   397   398      1
   417   397   399      1
   418   397   400      1
   419   398   401      1
   420   398   402      1
   421   398   406      1
   422   403   404      1
   423   403   408      1
   424   403   410      1
   425   403   411      1
   426   404   405      1
   427   404   412      1
   428   404   413      1
   429   405   406      1
   430   405   407      1
   431   405   414      1
   432   406   415      1
   433   406   416      1
   434   407   408      1
   435   407   417      1
   436   407   418      1
   437   408   409      1
   438   408   419      1
   439   409   420      1
   440   409   421      1
   441   409   425      1
   442   422   423      1
   443   422   427      1
   444   422   429      1
   445   422   430      1
   446   423   424      1
   447   423   431      1
   448   423   432      1
   449   424   425      1
   450   424   426      1
   451   424   433      1
   452   425   434      1
   453   425   435      1
   454   426   427      1
   455   426   436      1
   456   426   437      1
   457   427   428      1
   458   427   438      1
   459   428   439      1
   460   428   440      1
   461   428   444      1
   462   441   442      1
   463   441   446      1
   464   441   448      1
   465   441   449      1
   466   442   443      1
   467   442   450      1
   468   442   451      1
   469   443   444      1
   470   443   445      1
   471   443   452      1
   472   444   453      1
   473   444   454      1
   474   445   446      1
   475   445   455      1
   476   445   456      1
   477   446   447      1
   478   446   457      1
   479   447   458      1
   480   447   459      1
   481   447   463      1
   482   460   461      1
   483   460   465      1
   484   460   467      1
   485   460   468      1
   486   461   462      1
   487   461   469      1
   488   461   470      1
   489   462   463      1
   490   462   464      1
   491   462   471      1
   492   463   472      1
   493   463   473      1
   494   464   465      1
   495   464   474      1
   496   464   475      1
   497   465   466      1
   498   465   476      1
   499   466   477      1
   500   466   478      1
   501   466   479      1
   502   479   480      1
   503   479   481      1
   504   479   482      1
   505   480   483      1
   506   480   484      1
   507   480   488      1
   508   485   486      1
   509   485   490      1
   510   485   492      1
   511   485   493      1
   512   486   487      1
   513   486   494      1
   514   486   495      1
   515   487   488      1
   516   487   489      1
   517   487   496      1
   518   488   497      1
   519   488   498      1
   520   489   490      1
   521   489   499      1
   522   489   500      1
   523   490   491      1
   524   490   501      1
   525   491   502      1
   526   491   503      1
   527   491   507      1
   528   504   505      1
   529   504   509      1
   530   504   511      1
   531   504   512      1
   532   505   506      1
   533   505   513      1
   534   505   514      1
   535   506   507      1
   536   506   508      1
   537   506   515      1
   538   507   516      1
   539   507   517      1
   540   508   509      1
   541   508   518      1
   542   508   519      1
   543   509   510      1
   544   509   520      1
   545   510   521      1
   546   510   522      1
   547   510   526      1
   548   523   524      1
   549   523   528      1
   550   523   530      1
   551   523   531      1
   552   524   525      1
   553   524   532      1
   554   524   533      1
   555   525   526      1
   556   525   527      1
   557   525   534      1
   558   526   535      1
   559   526   536      1
   560   527   528      1
   561   527   537      1
   562   527   538      1
   563   528   529      1
   564   528   539      1
   565   529   540      1
   566   529   541      1
   567   529   545      1
   568   542   543      1
   569   542   547      1
   570   542   549      1
   571   542   550      1
   572   543   544      1
   573   543   551      1
   574   543   552      1
   575   544   545      1
   576   544   546      1
   577   544   553      1
   578   545   554      1
   579   545   555      1
   580   546   547      1
   581   546   556      1
   582   546   557      1
   583   547   548      1
   584   547   558      1
   585   548   559      1
   586   548   560      1
   587   548   564      1
   588   561   562      1
   589   561   566      1
   590   561   568      1
   591   561   569      1
   592   562   563      1
   593   562   570      1
   594   562   571      1
   595   563   564      1
   596   563   565      1
   597   563   572      1
   598   564   573      1
   599   564   574      1
   600   565   566      1
   601   565   575      1
   602   565   576      1
   603   566   567      1
   604   566   577      1
   605   567   578      1
   606   567   579      1
   607   567   583      1
   608   580   581      1
   609   580   585      1
   610   580   587      1
   611   580   588      1
   612   581   582      1
   613   581   589      1
   614   581   590      1
   615   582   583      1
   616   582   584      1
   617   582   591      1
   618   583   592      1
   619   583   593      1
   620   584   585      1
   621   584   594      1
   622   584   595      1
   623   585   586      1
   624   585   596      1
   625   586   597      1
   626   586   598      1
   627   586   602      1
   628   599   600      1
   629   599   604      1
   630   599   606      1
   631   599   607      1
   632   600   601      1
   633   600   608      1
   634   600   609      1
   635   601   602      1
   636   601   603      1
   637   601   610      1
   638   602   611      1
   639   602   612      1
   640   603   604      1
   641   603   613      1
   642   603   614      1
   643   604   605      1
   644   604   615      1
   645   605   616      1
   646   605   617      1
   647   605   621      1
   648   618   619      1
   649   618   623      1
   650   618   625      1
   651   618   626      1
   652   619   620      1
   653   619   627      1
   654   619   628      1
   655   620   621      1
   656   620   622      1
   657   620   629      1
   658   621   630      1
   659   621   631      1
   660   622   623      1
   661   622   632      1
   662   622   633      1
   663   623   624      1
   664   623   634      1
   665   624   635      1
   666   624   636      1
   667   624   640      1
   668   637   638      1
   669   637   642      1
   670   637   644      1
   671   637   645      1
   672   638   639      1
   673   638   646      1
   674   638   647      1
   675   639   640      1
   676   639   641      1
   677   639   648      1
   678   640   649      1
   679   640   650      1
   680   641   642      1
   681   641   651      1
   682   641   652      1
   683   642   643      1
   684   642   653      1
   685   643   654      1
   686   643   655      1
   687   643   659      1
   688   656   657      1
   689   656   661      1
   690   656   663      1
   691   656   664      1
   692   657   658      1
   693   657   665      1
   694   657   666      1
   695   658   659      1
   696   658   660      1
   697   658   667      1
   698   659   668      1
   699   659   669      1
   700   660   661      1
   701   660   670      1
   702   660   671      1
   703   661   662      1
   704   661   672      1
   705   662   673      1
   706   662   674      1
   707   662   675      1
   708   675   676      1
   709   675   677      1
   710   675   678      1
   711   676   679      1
   712   676   680      1
   713   676   684      1
   714   681   682      1
   715   681   686      1
   716   681   688      1
   717   681   689      1
   718   682   683      1
   719   682   690      1
   720   682   691      1
   721   683   684      1
   722   683   685      1
   723   683   692      1
   724   684   693      1
   725   684   694      1
   726   685   686      1
   727   685   695      1
   728   685   696      1
   729   686   687      1
   730   686   697      1
   731   687   698      1
   732   687   699      1
   733   687   703      1
   734   700   701      1
   735   700   705      1
   736   700   707      1
   737   700   708      1
   738   701   702      1
   739   701   709      1
   740   701   710      1
   741   702   703      1
   742   702   704      1
   743   702   711      1
   744   703   712      1
   745   703   713      1
   746   704   705      1
   747   704   714      1
   748   704   715      1
   749   705   706      1
   750   705   716      1
   751   706   717      1
   752   706   718      1
   753   706   722      1
   754   719   720      1
   755   719   724      1
   756   719   726      1
   757   719   727      1
   758   720   721      1
   759   720   728      1
   760   720   729      1
   761   721   722      1
   762   721   723      1
   763   721   730      1
   764   722   731      1
   765   722   732      1
   766   723   724      1
   767   723   733      1
   768   723   734      1
   769   724   725      1
   770   724   735      1
   771   725   736      1
   772   725   737      1
   773   725   741      1
   774   738   739      1
   775   738   743      1
   776   738   745      1
   777   738   746      1
   778   739   740      1
   779   739   747      1
   780   739   748      1
   781   740   741      1
   782   740   742      1
   783   740   749      1
   784   741   750      1
   785   741   751      1
   786   742   743      1
   787   742   752      1
   788   742   753      1
   789   743   744      1
   790   743   754      1
   791   744   755      1
   792   744   756      1
   793   744   760      1
   794   757   758      1
   795   757   762      1
   796   757   764      1
   797   757   765      1
   798   758   759      1
   799   758   766      1
   800   758   767      1
   801   759   760      1
   802   759   761      1
   803   759   768      1
   804   760   769      1
   805   760   770      1
   806   761   762      1
   807   761   771      1
   808   761   772      1
   809   762   763      1
   810   762   773      1
   811   763   774      1
   812   763   775      1
   813   763   779      1
   814   776   777      1
   815   776   781      1
   816   776   783      1
   817   776   784      1
   818   777   778      1
   819   777   785      1
   820   777   786      1
   821   778   779      1
   822   778   780      1
   823   778   787      1
   824   779   788      1
   825   779   789      1
   826   780   781      1
   827   780   790      1
   828   780   791      1
   829   781   782      1
   830   781   792      1
   831   782   793      1
   832   782   794      1
   833   782   795      1
   834   795   796      1
   835   795   797      1
   836   795   798      1
   837   796   799      1
   838   796   800      1
   839   796   804      1
   840   801   802      1
   841   801   806      1
   842   801   808      1
   843   801   809      1
   844   802   803      1
   845   802   810      1
   846   802   811      1
   847   803   804      1
   848   803   805      1
   849   803   812      1
   850   804   813      1
   851   804   814      1
   852   805   806      1
   853   805   815      1
   854   805   816      1
   855   806   807      1
   856   806   817      1
   857   807   818      1
   858   807   819      1
   859   807   823      1
   860   820   821      1
   861   820   825      1
   862   820   827      1
   863   820   828      1
   864   821   822      1
   865   821   829      1
   866   821   830      1
   867   822   823      1
   868   822   824      1
   869   822   831      1
   870   823   832      1
   871   823   833      1
   872   824   825      1
   873   824   834      1
   874   824   835      1
   875   825   826      1
   876   825   836      1
   877   826   837      1
   878   826   838      1
   879   826   839      1
   880   839   840      1
   881   839   841      1
   882   839   842      1
   883   840   843      1
   884   840   844      1
   885   840   848      1
   886   845   846      1
   887   845   850      1
   888   845   852      1
   889   845   853      1
   890   846   847      1
   891   846   854      1
   892   846   855      1
   893   847   848      1
   894   847   849      1
   895   847   856      1
   896   848   857      1
   897   848   858      1
   898   849   850      1
   899   849   859      1
   900   849   860      1
   901   850   851      1
   902   850   861      1
   903   851   862      1
   904   851   863      1
   905   851   867      1
   906   864   865      1
   907   864   869      1
   908   864   871      1
   909   864   872      1
   910   865   866      1
   911   865   873      1
   912   865   874      1
   913   866   867      1
   914   866   868      1
   915   866   875      1
   916   867   876      1
   917   867   877      1
   918   868   869      1
   919   868   878      1
   920   868   879      1
   921   869   870      1
   922   869   880      1
   923   870   881      1
   924   870   882      1
   925   870   883      1
   926   883   884      1
   927   883   885      1
   928   883   886      1
   929   884   887      1
   930   884   888      1
   931   884   892      1
   932   889   890      1
   933   889   894      1
   934   889   896      1
   935   889   897      1
   936   890   891      1
   937   890   898      1
   938   890   899      1
   939   891   892      1
   940   891   893      1
   941   891   900      1
   942   892   901      1
   943   892   902      1
   944   893   894      1
   945   893   903      1
   946   893   904      1
   947   894   895      1
   948   894   905      1
   949   895   906      1
   950   895   907      1
   951   895   908      1
   952   908   909      1
   953   908   910      1
   954   908   911      1
   955   909   912      1
   956   909   913      1
   957   909   917      1
   958   914   915      1
   959   914   919      1
   960   914   921      1
   961   914   922      1
   962   915   916      1
   963   915   923      1
   964   915   924      1
   965   916   917      1
   966   916   918      1
   967   916   925      1
   968   917   926      1
   969   917   927      1
   970   918   919      1
   971   918   928      1
   972   918   929      1
   973   919   920      1
   974   919   930      1
   975   920   931      1
   976   920   932      1
   977   920   936      1
   978   933   934      1
   979   933   938      1
   980   933   940      1
   981   933   941      1
   982   934   935      1
   983   934   942      1
   984   934   943      1
   985   935   936      1
   986   935   937      1
   987   935   944      1
   988   936   945      1
   989   936   946      1
   990   937   938      1
   991   937   947      1
   992   937   948      1
   993   938   939      1
   994   938   949      1
   995   939   950      1
   996   939   951      1
   997   939   955      1
   998   952   953      1
   999   952   957      1
  1000   952   959      1
  1001   952   960      1
  1002   953   954      1
  1003   953   961      1
  1004   953   962      1
  1005   954   955      1
  1006   954   956      1
  1007   954   963      1
  1008   955   964      1
  1009   955   965      1
  1010   956   957      1
  1011   956   966      1
  1012   956   967      1
  1013   957   958      1
  1014   957   968      1
  1015   958   969      1
  1016   958   970      1
  1017   958   971      1
  1018   971   972      1
  1019   971   973      1
  1020   971   974      1
  1021   972   975      1
  1022   972   976      1
  1023   972   980      1
  1024   977   978      1
  1025   977   982      1
  1026   977   984      1
  1027   977   985      1
  1028   978   979      1
  1029   978   986      1
  1030   978   987      1
  1031   979   980      1
  1032   979   981      1
  1033   979   988      1
  1034   980   989      1
  1035   980   990      1
  1036   981   982      1
  1037   981   991      1
  1038   981   992      1
  1039   982   983      1
  1040   982   993      1
  1041   983   994      1
  1042   983   995      1
  1043   983   999      1
  1044   996   997      1
  1045   996  1001      1
  1046   996  1003      1
  1047   996  1004      1
  1048   997   998      1
  1049   997  1005      1
  1050   997  1006      1
  1051   998   999      1
  1052   998  1000      1
  1053   998  1007      1
  1054   999  1008      1
  1055   999  1009      1
  1056  1000  1001      1
  1057  1000  1010      1
  1058  1000  1011      1
  1059  1001  1002      1
  1060  1001  1012      1
  1061  1002  1013      1
  1062  1002  1014      1
  1063  1002  1015      1
  1064  1015  1016      1
  1065  1015  1017      1
  1066  1015  1018      1
  1067  1016  1019      1
  1068  1016  1020      1
  1069  1016  1024      1
  1070  1021  1022      1
  1071  1021  1026      1
  1072  1021  1028      1
  1073  1021  1029      1
  1074  1022  1023      1
  1075  1022  1030      1
  1076  1022  1031      1
  1077  1023  1024      1
  1078  1023  1025      1
  1079  1023  1032      1
  1080  1024  1033      1
  1081  1024  1034      1
  1082  1025  1026      1
  1083  1025  1035      1
  1084  1025  1036      1
  1085  1026  1027      1
  1086  1026  1037      1
  1087  1027  1038      1
  1088  1027  1039      1
  1089  1027  1043      1
  1090  1040  1041      1
  1091  1040  1045      1
  1092  1040  1047      1
  1093  1040  1048      1
  1094  1041  1042      1
  1095  1041  1049      1
  1096  1041  1050      1
  1097  1042  1043      1
  1098  1042  1044      1
  1099  1042  1051      1
  1100  1043  1052      1
  1101  1043  1053      1
  1102  1044  1045      1
  1103  1044  1054      1
  1104  1044  1055      1
  1105  1045  1046      1
  1106  1045  1056      1
  1107  1046  1057      1
  1108  1046  1058      1
  1109  1046  1059      1
  1110  1059  1060      1
  1111  1059  1061      1
  1112  1059  1062      1
  1113  1060  1063      1
  1114  1060  1064      1
  1115  1060  1068      1
  1116  1065  1066      1
  1117  1065  1070      1
  1118  1065  1072      1
  1119  1065  1073      1
  1120  1066  1067      1
  1121  1066  1074      1
  1122  1066  1075      1
  1123  1067  1068      1
  1124  1067  1069      1
  1125  1067  1076      1
  1126  1068  1077      1
  1127  1068  1078      1
  1128  1069  1070      1
  1129  1069  1079      1
  1130  1069  1080      1
  1131  1070  1071      1
  1132  1070  1081      1
  1133  1071  1082      1
  1134  1071  1083      1
  1135  1071  1087      1
  1136  1084  1085      1
  1137  1084  1089      1
  1138  1084  1091      1
  1139  1084  1092      1
  1140  1085  1086      1
  1141  1085  1093      1
  1142  1085  1094      1
  1143  1086  1087      1
  1144  1086  1088      1
  1145  1086  1095      1
  1146  1087  1096      1
  1147  1087  1097      1
  1148  1088  1089      1
  1149  1088  1098      1
  1150  1088  1099      1
  1151  1089  1090      1
  1152  1089  1100      1
  1153  1090  1101      1
  1154  1090  1102      1
  1155  1090  1103      1
  1156  1103  1104      1
  1157  1103  1105      1
  1158  1103  1106      1
  1159  1104  1107      1
  1160  1104  1108      1
  1161  1104  1109      1
  1162  1109  1110      1
  1163  1109  1111      1
  1164  1109  1112      1
  1165  1110  1113      1
  1166  1110  1114      1
  1167  1110  1118      1
  1168  1115  1116      1
  1169  1115  1120      1
  1170  1115  1122      1
  1171  1115  1123      1
  1172  1116  1117      1
  1173  1116  1124      1
  1174  1116  1125      1
  1175  1117  1118      1
  1176  1117  1119      1
  1177  1117  1126      1
  1178  1118  1127      1
  1179  1118  1128      1
  1180  1119  1120      1
  1181  1119  1129      1
  1182  1119  1130      1
  1183  1120  1121      1
  1184  1120  1131      1
  1185  1121  1132      1
  1186  1121  1133      1
  1187  1121  1137      1
  1188  1134  1135      1
  1189  1134  1139      1
  1190  1134  1141      1
  1191  1134  1142      1
  1192  1135  1136      1
  1193  1135  1143      1
  1194  1135  1144      1
  1195  1136  1137      1
  1196  1136  1138      1
  1197  1136  1145      1
  1198  1137  1146      1
  1199  1137  1147      1
  1200  1138  1139      1
  1201  1138  1148      1
  1202  1138  1149      1
  1203  1139  1140      1
  1204  1139  1150      1
  1205  1140  1151      1
  1206  1140  1152      1
  1207  1140  1153      1
  1208  1153  1154      1
  1209  1153  1155      1
  1210  1153  1156      1
  1211  1154  1157      1
  1212  1154  1158      1
  1213  1154  1162      1
  1214  1159  1160      1
  1215  1159  1164      1
  1216  1159  1166      1
  1217  1159  1167      1
  1218  1160  1161      1
  1219  1160  1168      1
  1220  1160  1169      1
  1221  1161  1162      1
  1222  1161  1163      1
  1223  1161  1170      1
  1224  1162  1171      1
  1225  1162  1172      1
  1226  1163  1164      1
  1227  1163  1173      1
  1228  1163  1174      1
  1229  1164  1165      1
  1230  1164  1175      1
  1231  1165  1176      1
  1232  1165  1177      1
  1233  1165  1178      H
