###
### Created by PolyChef-cpp17 on Wed Feb 26 21:14:13 2025
###

@<TRIPOS>MOLECULE
NO_INFO
796 833 1 0 0
SMALL
USER_CHARGES


@<TRIPOS>ATOM
      1 C         151.4552  241.9507  116.4428 C.3       0        0    0.0000
      2 C         151.9347  243.3206  116.9020 C.3       0        0    0.0000
      3 C         153.4498  243.2418  116.6878 C.3       0        0    0.0000
      4 C         154.2735  244.3061  117.4193 C.3       0        0    0.0000
      5 C         153.8279  241.7801  116.9975 C.3       0        0    0.0000
      6 C         152.4974  241.0037  117.0466 C.3       0        0    0.0000
      7 C         152.5322  239.5952  116.4458 C.3       0        0    0.0000
      8 H         150.4442  241.7307  116.7993 H         0        0    0.0000
      9 H         151.4463  241.9096  115.3480 H         0        0    0.0000
     10 H         151.4788  244.1289  116.3219 H         0        0    0.0000
     11 H         151.6746  243.4695  117.9558 H         0        0    0.0000
     12 H         153.6282  243.3932  115.6125 H         0        0    0.0000
     13 H         154.3857  244.0126  118.4697 H         0        0    0.0000
     14 H         155.2823  244.3356  116.9909 H         0        0    0.0000
     15 H         154.3520  241.6692  117.9529 H         0        0    0.0000
     16 H         154.5102  241.4072  116.2259 H         0        0    0.0000
     17 H         152.2409  240.8835  118.1100 H         0        0    0.0000
     18 H         151.7097  239.0055  116.8678 H         0        0    0.0000
     19 H         152.3510  239.6613  115.3665 H         0        0    0.0000
     20 C         154.6579  237.8410  120.1717 C.3       1        0    0.0000
     21 C         153.6418  238.4928  119.2306 C.3       1        0    0.0000
     22 C         154.4472  239.1136  118.0751 C.3       1        0    0.0000
     23 C         153.8691  238.8306  116.6830 C.3       1        0    0.0000
     24 C         155.8601  238.5465  118.2465 C.3       1        0    0.0000
     25 C         156.0302  238.3859  119.7610 C.3       1        0    0.0000
     26 C         156.3873  239.7134  120.4562 C.3       1        0    0.0000
     27 H         154.4100  238.0157  121.2230 H         1        0    0.0000
     28 H         154.6400  236.7551  120.0133 H         1        0    0.0000
     29 H         152.9144  237.7477  118.8903 H         1        0    0.0000
     30 H         153.0821  239.2752  119.7564 H         1        0    0.0000
     31 H         154.4943  240.2007  118.2325 H         1        0    0.0000
     32 H         154.5903  239.1456  115.9195 H         1        0    0.0000
     33 H         153.7107  237.7548  116.5457 H         1        0    0.0000
     34 H         156.6197  239.1963  117.7998 H         1        0    0.0000
     35 H         155.9386  237.5640  117.7633 H         1        0    0.0000
     36 H         156.8122  237.6440  119.9667 H         1        0    0.0000
     37 H         156.1775  239.6664  121.5305 H         1        0    0.0000
     38 H         155.7661  240.5180  120.0451 H         1        0    0.0000
     39 C         157.8803  240.0955  120.2394 C.3       2        0    0.0000
     40 C         158.1272  240.9686  119.0008 C.3       2        0    0.0000
     41 H         158.1936  240.6638  121.1245 H         2        0    0.0000
     42 H         158.4944  239.1876  120.2163 H         2        0    0.0000
     43 H         157.3925  241.7793  118.9313 H         2        0    0.0000
     44 H         159.1101  241.4446  119.1103 H         2        0    0.0000
     45 C         157.6360  236.7070  116.4202 C.3       3        0    0.0000
     46 C         157.0251  238.0971  116.6136 C.3       3        0    0.0000
     47 C         157.7138  238.7131  117.8447 C.3       3        0    0.0000
     48 C         158.1597  240.1680  117.6531 C.3       3        0    0.0000
     49 C         158.8905  237.7754  118.1331 C.3       3        0    0.0000
     50 C         158.3898  236.3885  117.7160 C.3       3        0    0.0000
     51 C         157.4983  235.7379  118.7908 C.3       3        0    0.0000
     52 H         156.8790  235.9627  116.1553 H         3        0    0.0000
     53 H         158.3513  236.7482  115.5888 H         3        0    0.0000
     54 H         157.1606  238.6957  115.7061 H         3        0    0.0000
     55 H         155.9462  238.0183  116.7914 H         3        0    0.0000
     56 H         157.0172  238.6577  118.6934 H         3        0    0.0000
     57 H         159.1842  240.1854  117.2625 H         3        0    0.0000
     58 H         157.5278  240.6674  116.9096 H         3        0    0.0000
     59 H         159.2009  237.8177  119.1822 H         3        0    0.0000
     60 H         159.7579  238.0510  117.5194 H         3        0    0.0000
     61 H         159.2467  235.7352  117.5079 H         3        0    0.0000
     62 H         156.7126  235.1250  118.3353 H         3        0    0.0000
     63 H         156.9955  236.5217  119.3697 H         3        0    0.0000
     64 C         158.3265  234.8638  119.7765 C.3       4        0    0.0000
     65 C         157.4929  233.8256  120.5411 C.3       4        0    0.0000
     66 H         159.0709  234.3266  119.1749 H         4        0    0.0000
     67 H         158.8858  235.5102  120.4630 H         4        0    0.0000
     68 H         156.6736  234.3003  121.0936 H         4        0    0.0000
     69 H         157.0288  233.1543  119.8073 H         4        0    0.0000
     70 C         160.1012  234.7037  123.6291 C.3       5        0    0.0000
     71 C         159.9227  234.8090  122.1121 C.3       5        0    0.0000
     72 C         159.8034  233.3746  121.5855 C.3       5        0    0.0000
     73 C         158.3322  232.9243  121.5117 C.3       5        0    0.0000
     74 C         160.6577  232.5914  122.5904 C.3       5        0    0.0000
     75 C         160.3162  233.2144  123.9463 C.3       5        0    0.0000
     76 C         161.3928  232.9391  125.0023 C.3       5        0    0.0000
     77 H         160.9461  235.3254  123.9462 H         5        0    0.0000
     78 H         159.2110  235.0764  124.1486 H         5        0    0.0000
     79 H         160.8167  235.2791  121.6829 H         5        0    0.0000
     80 H         159.0693  235.4399  121.8436 H         5        0    0.0000
     81 H         160.2467  233.3081  120.5837 H         5        0    0.0000
     82 H         157.8856  232.9869  122.5114 H         5        0    0.0000
     83 H         158.2523  231.8777  121.1990 H         5        0    0.0000
     84 H         161.7203  232.7425  122.3592 H         5        0    0.0000
     85 H         160.4702  231.5136  122.5783 H         5        0    0.0000
     86 H         159.3616  232.7927  124.2911 H         5        0    0.0000
     87 H         161.5207  233.8120  125.6529 H         5        0    0.0000
     88 H         162.3551  232.7692  124.5053 H         5        0    0.0000
     89 C         157.7948  230.6057  127.4326 C.3       6        0    0.0000
     90 C         158.6556  230.8909  126.1991 C.3       6        0    0.0000
     91 C         159.7478  231.8682  126.6529 C.3       6        0    0.0000
     92 C         161.0498  231.6919  125.8666 C.3       6        0    0.0000
     93 C         159.8655  231.5863  128.1544 C.3       6        0    0.0000
     94 C         158.4027  231.4226  128.5802 C.3       6        0    0.0000
     95 C         158.2059  230.7498  129.9415 C.3       6        0    0.0000
     96 H         156.7488  230.8837  127.2637 H         6        0    0.0000
     97 H         157.8141  229.5312  127.6507 H         6        0    0.0000
     98 H         158.0597  231.3180  125.3853 H         6        0    0.0000
     99 H         159.0854  229.9523  125.8290 H         6        0    0.0000
    100 H         159.3696  232.8919  126.5168 H         6        0    0.0000
    101 H         160.9577  230.8231  125.2039 H         6        0    0.0000
    102 H         161.8811  231.4816  126.5497 H         6        0    0.0000
    103 H         160.3573  232.4063  128.6872 H         6        0    0.0000
    104 H         160.4335  230.6656  128.3380 H         6        0    0.0000
    105 H         157.9259  232.4137  128.5854 H         6        0    0.0000
    106 H         158.8615  231.2087  130.6908 H         6        0    0.0000
    107 H         158.4978  229.6952  129.8696 H         6        0    0.0000
    108 C         156.7329  230.8225  130.4293 C.3       7        0    0.0000
    109 C         156.4729  230.0715  131.7430 C.3       7        0    0.0000
    110 H         156.5055  231.8837  130.5930 H         7        0    0.0000
    111 H         156.0627  230.4776  129.6332 H         7        0    0.0000
    112 H         157.3947  229.9550  132.3250 H         7        0    0.0000
    113 H         155.7914  230.6782  132.3528 H         7        0    0.0000
    114 C         155.7878  228.6740  131.5530 C.3       8        0    0.0000
    115 C         155.3479  228.0111  132.8662 C.3       8        0    0.0000
    116 H         156.5279  228.0209  131.0732 H         8        0    0.0000
    117 H         154.9497  228.7656  130.8522 H         8        0    0.0000
    118 H         154.7170  227.1482  132.6174 H         8        0    0.0000
    119 H         156.2076  227.6205  133.4233 H         8        0    0.0000
    120 C         154.4950  228.9425  133.7955 C.3       9        0    0.0000
    121 C         153.8788  228.2229  135.0038 C.3       9        0    0.0000
    122 H         155.1717  229.7206  134.1714 H         9        0    0.0000
    123 H         153.7280  229.4541  133.2023 H         9        0    0.0000
    124 H         154.0751  228.7672  135.9350 H         9        0    0.0000
    125 H         152.7892  228.2088  134.8724 H         9        0    0.0000
    126 C         154.3354  226.7307  135.1576 C.3      10        0    0.0000
    127 C         153.3151  225.8371  135.8770 C.3      10        0    0.0000
    128 H         155.2578  226.7414  135.7524 H        10        0    0.0000
    129 H         154.6007  226.3224  134.1753 H        10        0    0.0000
    130 H         153.5947  225.7863  136.9371 H        10        0    0.0000
    131 H         152.3086  226.2701  135.8387 H        10        0    0.0000
    132 C         156.3587  223.6198  133.2529 C.3      11        0    0.0000
    133 C         155.3065  224.5973  133.7577 C.3      11        0    0.0000
    134 C         154.6345  223.8193  134.8939 C.3      11        0    0.0000
    135 C         153.2759  224.3615  135.3481 C.3      11        0    0.0000
    136 C         154.6438  222.3470  134.4382 C.3      11        0    0.0000
    137 C         155.6054  222.2858  133.2354 C.3      11        0    0.0000
    138 C         156.4857  221.0347  133.1566 C.3      11        0    0.0000
    139 H         156.7303  223.8954  132.2611 H        11        0    0.0000
    140 H         157.2098  223.6035  133.9426 H        11        0    0.0000
    141 H         155.7526  225.5333  134.1080 H        11        0    0.0000
    142 H         154.6054  224.8357  132.9504 H        11        0    0.0000
    143 H         155.3041  223.8847  135.7648 H        11        0    0.0000
    144 H         152.5702  224.3060  134.5108 H        11        0    0.0000
    145 H         152.8780  223.7144  136.1388 H        11        0    0.0000
    146 H         153.6541  221.9892  134.1343 H        11        0    0.0000
    147 H         154.9609  221.7085  135.2698 H        11        0    0.0000
    148 H         154.9795  222.2848  132.3302 H        11        0    0.0000
    149 H         156.8437  220.9131  132.1274 H        11        0    0.0000
    150 H         157.3731  221.1808  133.7837 H        11        0    0.0000
    151 C         152.0580  220.0944  133.0571 C.3      12        0    0.0000
    152 C         153.4921  220.6008  132.8822 C.3      12        0    0.0000
    153 C         154.3159  219.9579  134.0057 C.3      12        0    0.0000
    154 C         155.7724  219.7211  133.5970 C.3      12        0    0.0000
    155 C         153.5284  218.6840  134.3297 C.3      12        0    0.0000
    156 C         152.0750  219.1666  134.2791 C.3      12        0    0.0000
    157 C         151.0345  218.0480  134.1750 C.3      12        0    0.0000
    158 H         151.3560  220.9225  133.2025 H        12        0    0.0000
    159 H         151.7467  219.5598  132.1517 H        12        0    0.0000
    160 H         153.5399  221.6938  132.9361 H        12        0    0.0000
    161 H         153.8647  220.3078  131.8933 H        12        0    0.0000
    162 H         154.2810  220.6239  134.8802 H        12        0    0.0000
    163 H         155.8033  219.0108  132.7622 H        12        0    0.0000
    164 H         156.3293  219.2627  134.4227 H        12        0    0.0000
    165 H         153.7911  218.2797  135.3124 H        12        0    0.0000
    166 H         153.7109  217.9071  133.5768 H        12        0    0.0000
    167 H         151.8759  219.7746  135.1736 H        12        0    0.0000
    168 H         151.0676  217.5893  133.1799 H        12        0    0.0000
    169 H         150.0313  218.4747  134.2932 H        12        0    0.0000
    170 C         151.2355  216.9515  135.2568 C.3      13        0    0.0000
    171 C         151.4252  215.5390  134.6856 C.3      13        0    0.0000
    172 H         152.1430  217.2183  135.8135 H        13        0    0.0000
    173 H         150.4070  216.9838  135.9740 H        13        0    0.0000
    174 H         150.4631  215.0790  134.4313 H        13        0    0.0000
    175 H         151.9900  215.6238  133.7483 H        13        0    0.0000
    176 C         153.4038  216.6073  138.4481 C.3      14        0    0.0000
    177 C         152.3960  216.4881  137.3059 C.3      14        0    0.0000
    178 C         152.1433  214.9851  137.0958 C.3      14        0    0.0000
    179 C         152.2398  214.5782  135.6195 C.3      14        0    0.0000
    180 C         153.1647  214.2858  138.0060 C.3      14        0    0.0000
    181 C         153.3846  215.2584  139.1717 C.3      14        0    0.0000
    182 C         152.2889  215.2060  140.2520 C.3      14        0    0.0000
    183 H         154.4021  216.7757  138.0243 H        14        0    0.0000
    184 H         153.1839  217.4554  139.1041 H        14        0    0.0000
    185 H         152.7762  216.9863  136.4074 H        14        0    0.0000
    186 H         151.4565  216.9846  137.5761 H        14        0    0.0000
    187 H         151.1328  214.7585  137.4642 H        14        0    0.0000
    188 H         151.8899  213.5482  135.4846 H        14        0    0.0000
    189 H         153.2905  214.5992  135.3061 H        14        0    0.0000
    190 H         152.8188  213.2991  138.3290 H        14        0    0.0000
    191 H         154.1142  214.1431  137.4737 H        14        0    0.0000
    192 H         154.3611  215.0752  139.6380 H        14        0    0.0000
    193 H         151.3765  215.7112  139.9175 H        14        0    0.0000
    194 H         152.6352  215.7427  141.1436 H        14        0    0.0000
    195 C         151.9509  213.7471  140.6706 C.3      15        0    0.0000
    196 C         152.2859  213.4243  142.1338 C.3      15        0    0.0000
    197 H         150.8694  213.6205  140.5331 H        15        0    0.0000
    198 H         152.4383  213.0437  139.9852 H        15        0    0.0000
    199 H         152.3269  214.3344  142.7437 H        15        0    0.0000
    200 H         151.4732  212.8097  142.5415 H        15        0    0.0000
    201 C         154.6295  212.9673  138.8110 C.3      16        0    0.0000
    202 C         154.0601  213.6696  140.0427 C.3      16        0    0.0000
    203 C         154.6690  212.9700  141.2702 C.3      16        0    0.0000
    204 C         153.6097  212.6044  142.3183 C.3      16        0    0.0000
    205 C         155.4252  211.7617  140.6966 C.3      16        0    0.0000
    206 C         155.8637  212.2010  139.2938 C.3      16        0    0.0000
    207 C         157.1260  213.0822  139.2747 C.3      16        0    0.0000
    208 H         153.8858  212.2536  138.4340 H        16        0    0.0000
    209 H         154.8440  213.6694  137.9993 H        16        0    0.0000
    210 H         152.9652  213.6336  140.0308 H        16        0    0.0000
    211 H         154.3475  214.7276  140.0423 H        16        0    0.0000
    212 H         155.3980  213.6571  141.7226 H        16        0    0.0000
    213 H         154.0036  212.7622  143.3291 H        16        0    0.0000
    214 H         153.3708  211.5374  142.2348 H        16        0    0.0000
    215 H         156.2624  211.4612  141.3341 H        16        0    0.0000
    216 H         154.7528  210.8984  140.6085 H        16        0    0.0000
    217 H         156.0263  211.3227  138.6561 H        16        0    0.0000
    218 H         157.0457  213.9071  139.9908 H        16        0    0.0000
    219 H         157.2330  213.5379  138.2828 H        16        0    0.0000
    220 C         157.4092  208.6378  139.2957 C.3      17        0    0.0000
    221 C         157.0727  210.1287  139.2094 C.3      17        0    0.0000
    222 C         158.1047  210.8544  140.0827 C.3      17        0    0.0000
    223 C         158.4146  212.2630  139.5686 C.3      17        0    0.0000
    224 C         159.3001  209.8958  140.0785 C.3      17        0    0.0000
    225 C         158.6305  208.5246  140.2177 C.3      17        0    0.0000
    226 C         159.5262  207.3372  139.8540 C.3      17        0    0.0000
    227 H         156.5660  208.0592  139.6881 H        17        0    0.0000
    228 H         157.6273  208.2540  138.2919 H        17        0    0.0000
    229 H         156.0536  210.3298  139.5567 H        17        0    0.0000
    230 H         157.1303  210.4560  138.1643 H        17        0    0.0000
    231 H         157.7063  210.9137  141.1061 H        17        0    0.0000
    232 H         159.0000  212.1903  138.6442 H        17        0    0.0000
    233 H         159.0340  212.8046  140.2931 H        17        0    0.0000
    234 H         159.9905  210.0994  140.9032 H        17        0    0.0000
    235 H         159.8575  209.9670  139.1361 H        17        0    0.0000
    236 H         158.2706  208.4133  141.2509 H        17        0    0.0000
    237 H         159.4467  207.1147  138.7835 H        17        0    0.0000
    238 H         159.1794  206.4449  140.3889 H        17        0    0.0000
    239 C         161.4511  209.8773  143.1076 C.3      18        0    0.0000
    240 C         160.4635  209.2175  142.1420 C.3      18        0    0.0000
    241 C         161.2267  208.9788  140.8268 C.3      18        0    0.0000
    242 C         161.0150  207.5857  140.2212 C.3      18        0    0.0000
    243 C         162.6931  209.2436  141.1827 C.3      18        0    0.0000
    244 C         162.6385  210.3372  142.2547 C.3      18        0    0.0000
    245 C         162.4433  211.7414  141.6521 C.3      18        0    0.0000
    246 H         160.9827  210.6816  143.6828 H        18        0    0.0000
    247 H         161.7961  209.1251  143.8286 H        18        0    0.0000
    248 H         160.0715  208.2931  142.5804 H        18        0    0.0000
    249 H         159.6078  209.8783  141.9610 H        18        0    0.0000
    250 H         160.9089  209.7405  140.1005 H        18        0    0.0000
    251 H         161.6186  207.4900  139.3109 H        18        0    0.0000
    252 H         161.3605  206.8103  140.9146 H        18        0    0.0000
    253 H         163.2814  209.5358  140.3067 H        18        0    0.0000
    254 H         163.1529  208.3404  141.6045 H        18        0    0.0000
    255 H         163.5627  210.3189  142.8464 H        18        0    0.0000
    256 H         162.4130  212.5073  142.4350 H        18        0    0.0000
    257 H         161.4805  211.7823  141.1290 H        18        0    0.0000
    258 C         165.4424  209.2067  142.0152 C.3      19        0    0.0000
    259 C         165.4092  210.7223  141.8033 C.3      19        0    0.0000
    260 C         164.6017  210.9692  140.5164 C.3      19        0    0.0000
    261 C         163.5641  212.0928  140.6313 C.3      19        0    0.0000
    262 C         163.9612  209.6136  140.2014 C.3      19        0    0.0000
    263 C         164.9808  208.5813  140.6945 C.3      19        0    0.0000
    264 C         166.1306  208.3661  139.6920 C.3      19        0    0.0000
    265 H         166.4270  208.8632  142.3462 H        19        0    0.0000
    266 H         164.7279  208.9451  142.8062 H        19        0    0.0000
    267 H         164.9736  211.2139  142.6801 H        19        0    0.0000
    268 H         166.4265  211.1133  141.6849 H        19        0    0.0000
    269 H         165.3065  211.2097  139.7077 H        19        0    0.0000
    270 H         164.0604  213.0128  140.9624 H        19        0    0.0000
    271 H         163.1205  212.3059  139.6519 H        19        0    0.0000
    272 H         163.7291  209.5071  139.1368 H        19        0    0.0000
    273 H         163.0227  209.4958  140.7587 H        19        0    0.0000
    274 H         164.4755  207.6252  140.8814 H        19        0    0.0000
    275 H         166.2573  209.2388  139.0419 H        19        0    0.0000
    276 H         165.8920  207.5162  139.0416 H        19        0    0.0000
    277 C         167.4758  208.0614  140.4128 C.3      20        0    0.0000
    278 C         168.6856  208.7891  139.8093 C.3      20        0    0.0000
    279 H         167.3611  208.3955  141.4520 H        20        0    0.0000
    280 H         167.6389  206.9779  140.4482 H        20        0    0.0000
    281 H         168.9308  208.3983  138.8148 H        20        0    0.0000
    282 H         168.4156  209.8442  139.6739 H        20        0    0.0000
    283 C         168.6970  207.9521  144.0661 C.3      21        0    0.0000
    284 C         168.4436  207.8652  142.5618 C.3      21        0    0.0000
    285 C         169.8232  207.7780  141.8865 C.3      21        0    0.0000
    286 C         169.9636  208.7618  140.7175 C.3      21        0    0.0000
    287 C         170.8305  208.0089  143.0235 C.3      21        0    0.0000
    288 C         170.1349  207.4727  144.2812 C.3      21        0    0.0000
    289 C         170.2088  205.9430  144.4391 C.3      21        0    0.0000
    290 H         168.6151  209.0007  144.3797 H        21        0    0.0000
    291 H         167.9590  207.3841  144.6413 H        21        0    0.0000
    292 H         167.8566  208.7259  142.2231 H        21        0    0.0000
    293 H         167.8617  206.9661  142.3269 H        21        0    0.0000
    294 H         169.9495  206.7533  141.5092 H        21        0    0.0000
    295 H         170.8417  208.5104  140.1114 H        21        0    0.0000
    296 H         170.1298  209.7715  141.1120 H        21        0    0.0000
    297 H         171.7917  207.5250  142.8248 H        21        0    0.0000
    298 H         171.0229  209.0823  143.1498 H        21        0    0.0000
    299 H         170.5532  207.9492  145.1770 H        21        0    0.0000
    300 H         170.1669  205.4406  143.4668 H        21        0    0.0000
    301 H         169.3376  205.5966  145.0084 H        21        0    0.0000
    302 C         174.9839  206.4520  145.7857 C.3      22        0    0.0000
    303 C         174.0009  205.7675  144.8372 C.3      22        0    0.0000
    304 C         172.6494  206.4816  145.0122 C.3      22        0    0.0000
    305 C         171.4888  205.4957  145.2001 C.3      22        0    0.0000
    306 C         172.8608  207.4334  146.1996 C.3      22        0    0.0000
    307 C         174.3505  207.7963  146.1534 C.3      22        0    0.0000
    308 C         174.7014  208.8913  145.1296 C.3      22        0    0.0000
    309 H         175.0865  205.8412  146.6918 H        22        0    0.0000
    310 H         175.9816  206.5476  145.3458 H        22        0    0.0000
    311 H         173.9473  204.6945  145.0518 H        22        0    0.0000
    312 H         174.3402  205.8718  143.7999 H        22        0    0.0000
    313 H         172.4663  207.0821  144.1099 H        22        0    0.0000
    314 H         171.2612  205.3739  146.2655 H        22        0    0.0000
    315 H         171.7875  204.5092  144.8255 H        22        0    0.0000
    316 H         172.2039  208.3071  146.1473 H        22        0    0.0000
    317 H         172.6463  206.9171  147.1445 H        22        0    0.0000
    318 H         174.6950  208.1075  147.1479 H        22        0    0.0000
    319 H         174.1478  208.7534  144.1946 H        22        0    0.0000
    320 H         175.7662  208.8208  144.8764 H        22        0    0.0000
    321 C         172.5061  208.5740  148.3346 C.3      23        0    0.0000
    322 C         172.5361  209.0379  146.8762 C.3      23        0    0.0000
    323 C         173.4163  210.2999  146.8337 C.3      23        0    0.0000
    324 C         174.4334  210.3184  145.6860 C.3      23        0    0.0000
    325 C         174.0885  210.3431  148.2098 C.3      23        0    0.0000
    326 C         173.0521  209.7410  149.1646 C.3      23        0    0.0000
    327 C         171.9664  210.7562  149.5692 C.3      23        0    0.0000
    328 H         171.5071  208.2462  148.6373 H        23        0    0.0000
    329 H         173.1749  207.7106  148.4444 H        23        0    0.0000
    330 H         172.9135  208.2339  146.2348 H        23        0    0.0000
    331 H         171.5236  209.2787  146.5316 H        23        0    0.0000
    332 H         172.7585  211.1765  146.7476 H        23        0    0.0000
    333 H         174.0497  210.9433  144.8708 H        23        0    0.0000
    334 H         175.3755  210.7707  146.0166 H        23        0    0.0000
    335 H         174.3848  211.3593  148.4897 H        23        0    0.0000
    336 H         174.9932  209.7214  148.2127 H        23        0    0.0000
    337 H         173.5553  209.3660  150.0648 H        23        0    0.0000
    338 H         170.9742  210.2917  149.5793 H        23        0    0.0000
    339 H         171.9317  211.5658  148.8305 H        23        0    0.0000
    340 C         176.0211  211.6605  150.5376 C.3      24        0    0.0000
    341 C         174.6126  211.8099  149.9797 C.3      24        0    0.0000
    342 C         173.7346  211.6772  151.2284 C.3      24        0    0.0000
    343 C         172.2546  211.3849  150.9633 C.3      24        0    0.0000
    344 C         174.4618  210.6599  152.1294 C.3      24        0    0.0000
    345 C         175.8740  210.5041  151.5319 C.3      24        0    0.0000
    346 C         177.0099  210.3637  152.5498 C.3      24        0    0.0000
    347 H         176.7503  211.4376  149.7525 H        24        0    0.0000
    348 H         176.3248  212.5910  151.0297 H        24        0    0.0000
    349 H         174.4715  212.7724  149.4782 H        24        0    0.0000
    350 H         174.4167  211.0150  149.2517 H        24        0    0.0000
    351 H         173.7734  212.6454  151.7499 H        24        0    0.0000
    352 H         171.8788  210.7078  151.7396 H        24        0    0.0000
    353 H         171.6834  212.3164  151.0544 H        24        0    0.0000
    354 H         173.9658  209.6837  152.1558 H        24        0    0.0000
    355 H         174.4742  211.0279  153.1610 H        24        0    0.0000
    356 H         175.8666  209.5752  150.9419 H        24        0    0.0000
    357 H         177.9644  210.5718  152.0520 H        24        0    0.0000
    358 H         176.8886  211.1250  153.3295 H        24        0    0.0000
    359 C         177.0035  209.6755  156.9309 C.3      25        0    0.0000
    360 C         176.7015  210.0506  155.4881 C.3      25        0    0.0000
    361 C         177.5329  209.0434  154.6909 C.3      25        0    0.0000
    362 C         177.0935  208.9627  153.2269 C.3      25        0    0.0000
    363 C         177.3775  207.7322  155.4830 C.3      25        0    0.0000
    364 C         176.9775  208.1418  156.9155 C.3      25        0    0.0000
    365 C         177.7692  207.4619  158.0397 C.3      25        0    0.0000
    366 H         176.2646  210.0899  157.6239 H        25        0    0.0000
    367 H         177.9857  210.0692  157.2136 H        25        0    0.0000
    368 H         175.6309  209.9322  155.2810 H        25        0    0.0000
    369 H         176.9810  211.0852  155.2667 H        25        0    0.0000
    370 H         178.5875  209.3513  154.7408 H        25        0    0.0000
    371 H         177.7841  208.3278  152.6592 H        25        0    0.0000
    372 H         176.1082  208.4850  153.1701 H        25        0    0.0000
    373 H         176.5858  207.1031  155.0576 H        25        0    0.0000
    374 H         178.3020  207.1464  155.4461 H        25        0    0.0000
    375 H         175.9286  207.8370  157.0475 H        25        0    0.0000
    376 H         178.6663  208.0544  158.2551 H        25        0    0.0000
    377 H         178.1164  206.4828  157.6885 H        25        0    0.0000
    378 C         178.4296  204.4085  161.2287 C.3      26        0    0.0000
    379 C         177.2734  205.4062  161.1249 C.3      26        0    0.0000
    380 C         177.8462  206.6775  160.4732 C.3      26        0    0.0000
    381 C         176.9693  207.2624  159.3591 C.3      26        0    0.0000
    382 C         179.2296  206.2570  159.9667 C.3      26        0    0.0000
    383 C         179.7103  205.2127  160.9800 C.3      26        0    0.0000
    384 C         180.2804  205.8542  162.2593 C.3      26        0    0.0000
    385 H         178.4221  203.8741  162.1834 H        26        0    0.0000
    386 H         178.3184  203.6556  160.4378 H        26        0    0.0000
    387 H         176.4501  204.9674  160.5505 H        26        0    0.0000
    388 H         176.8829  205.6426  162.1216 H        26        0    0.0000
    389 H         177.9857  207.4346  161.2581 H        26        0    0.0000
    390 H         176.1334  206.5815  159.1596 H        26        0    0.0000
    391 H         176.5331  208.2166  159.6763 H        26        0    0.0000
    392 H         179.9109  207.1096  159.8792 H        26        0    0.0000
    393 H         179.1488  205.7940  158.9747 H        26        0    0.0000
    394 H         180.4761  204.5768  160.5178 H        26        0    0.0000
    395 H         179.5058  205.9628  163.0265 H        26        0    0.0000
    396 H         180.6447  206.8625  162.0295 H        26        0    0.0000
    397 C         181.4671  205.0309  162.8387 C.3      27        0    0.0000
    398 C         182.0574  205.6124  164.1314 C.3      27        0    0.0000
    399 H         181.0785  204.0292  163.0624 H        27        0    0.0000
    400 H         182.2384  204.9034  162.0701 H        27        0    0.0000
    401 H         182.4479  206.6243  163.9717 H        27        0    0.0000
    402 H         181.2468  205.7011  164.8660 H        27        0    0.0000
    403 C         183.5681  205.5389  168.4616 C.3      28        0    0.0000
    404 C         182.7354  205.5836  167.1895 C.3      28        0    0.0000
    405 C         183.7546  205.2831  166.0832 C.3      28        0    0.0000
    406 C         183.1650  204.7158  164.7857 C.3      28        0    0.0000
    407 C         184.8477  204.4199  166.7463 C.3      28        0    0.0000
    408 C         184.4726  204.3255  168.2366 C.3      28        0    0.0000
    409 C         185.6646  204.3083  169.1969 C.3      28        0    0.0000
    410 H         184.1572  206.4586  168.5623 H        28        0    0.0000
    411 H         182.9456  205.4311  169.3551 H        28        0    0.0000
    412 H         181.9465  204.8255  167.2415 H        28        0    0.0000
    413 H         182.2553  206.5572  167.0495 H        28        0    0.0000
    414 H         184.2293  206.2389  165.8154 H        28        0    0.0000
    415 H         183.9744  204.5725  164.0599 H        28        0    0.0000
    416 H         182.7446  203.7233  164.9871 H        28        0    0.0000
    417 H         185.8199  204.9103  166.6121 H        28        0    0.0000
    418 H         184.9330  203.4212  166.3052 H        28        0    0.0000
    419 H         183.8715  203.4162  168.3822 H        28        0    0.0000
    420 H         185.9915  205.3325  169.4124 H        28        0    0.0000
    421 H         185.3536  203.8697  170.1525 H        28        0    0.0000
    422 C         189.1326  201.9052  171.2461 C.3      29        0    0.0000
    423 C         188.3283  201.8085  169.9572 C.3      29        0    0.0000
    424 C         187.9973  203.2727  169.6503 C.3      29        0    0.0000
    425 C         186.8662  203.4935  168.6413 C.3      29        0    0.0000
    426 C         187.8011  203.9411  171.0252 C.3      29        0    0.0000
    427 C         188.3494  202.9399  172.0608 C.3      29        0    0.0000
    428 C         189.1066  203.5579  173.2402 C.3      29        0    0.0000
    429 H         189.1984  200.9413  171.7602 H        29        0    0.0000
    430 H         190.1509  202.2417  171.0224 H        29        0    0.0000
    431 H         188.9016  201.3390  169.1519 H        29        0    0.0000
    432 H         187.4271  201.2092  170.1275 H        29        0    0.0000
    433 H         188.9014  203.7182  169.2086 H        29        0    0.0000
    434 H         187.2669  204.0118  167.7621 H        29        0    0.0000
    435 H         186.5009  202.5199  168.2937 H        29        0    0.0000
    436 H         186.7507  204.1585  171.2469 H        29        0    0.0000
    437 H         188.3259  204.9024  171.0431 H        29        0    0.0000
    438 H         187.4794  202.4180  172.4871 H        29        0    0.0000
    439 H         189.2979  204.6165  173.0277 H        29        0    0.0000
    440 H         188.4692  203.5257  174.1317 H        29        0    0.0000
    441 C         191.1535  204.6554  176.8134 C.3      30        0    0.0000
    442 C         191.1191  204.6036  175.2936 C.3      30        0    0.0000
    443 C         190.9194  203.1142  175.0060 C.3      30        0    0.0000
    444 C         190.4610  202.8605  173.5677 C.3      30        0    0.0000
    445 C         189.9221  202.6628  176.0887 C.3      30        0    0.0000
    446 C         190.0331  203.6942  177.2304 C.3      30        0    0.0000
    447 C         190.1670  203.1041  178.6399 C.3      30        0    0.0000
    448 H         190.9847  205.6686  177.1916 H        30        0    0.0000
    449 H         192.1353  204.3245  177.1689 H        30        0    0.0000
    450 H         190.2788  205.1966  174.9124 H        30        0    0.0000
    451 H         192.0412  204.9909  174.8496 H        30        0    0.0000
    452 H         191.8744  202.5983  175.1828 H        30        0    0.0000
    453 H         191.2251  203.2053  172.8609 H        30        0    0.0000
    454 H         190.3490  201.7815  173.4082 H        30        0    0.0000
    455 H         188.8938  202.6633  175.7061 H        30        0    0.0000
    456 H         190.1394  201.6393  176.4119 H        30        0    0.0000
    457 H         189.0962  204.2711  177.2240 H        30        0    0.0000
    458 H         191.2286  202.9421  178.8611 H        30        0    0.0000
    459 H         189.6881  202.1178  178.6596 H        30        0    0.0000
    460 C         185.8044  203.3934  179.7200 C.3      31        0    0.0000
    461 C         187.1981  203.0210  179.2379 C.3      31        0    0.0000
    462 C         188.0442  204.2463  179.6064 C.3      31        0    0.0000
    463 C         189.5467  203.9812  179.7653 C.3      31        0    0.0000
    464 C         187.3507  204.8793  180.8303 C.3      31        0    0.0000
    465 C         186.0749  204.0526  181.0740 C.3      31        0    0.0000
    466 C         184.8742  204.8604  181.5728 C.3      31        0    0.0000
    467 H         185.3373  204.0992  179.0224 H        31        0    0.0000
    468 H         185.1540  202.5178  179.8085 H        31        0    0.0000
    469 H         187.5347  202.1159  179.7550 H        31        0    0.0000
    470 H         187.2180  202.8189  178.1624 H        31        0    0.0000
    471 H         187.9427  204.9667  178.7810 H        31        0    0.0000
    472 H         190.0762  204.9410  179.7941 H        31        0    0.0000
    473 H         189.7245  203.4954  180.7320 H        31        0    0.0000
    474 H         187.1086  205.9247  180.6021 H        31        0    0.0000
    475 H         187.9823  204.8884  181.7248 H        31        0    0.0000
    476 H         186.3121  203.2619  181.8006 H        31        0    0.0000
    477 H         184.5950  205.6193  180.8323 H        31        0    0.0000
    478 H         184.0098  204.1946  181.6821 H        31        0    0.0000
    479 C         185.1466  205.5525  182.9378 C.3      32        0    0.0000
    480 C         183.9468  205.5368  183.8957 C.3      32        0    0.0000
    481 H         185.9691  205.0028  183.4132 H        32        0    0.0000
    482 H         185.5086  206.5734  182.7686 H        32        0    0.0000
    483 H         183.1226  206.1499  183.5128 H        32        0    0.0000
    484 H         183.5711  204.5072  183.9539 H        32        0    0.0000
    485 C         182.1083  208.6020  186.6982 C.3      33        0    0.0000
    486 C         182.3626  207.6326  185.5449 C.3      33        0    0.0000
    487 C         183.0496  206.3966  186.1511 C.3      33        0    0.0000
    488 C         184.2951  205.9750  185.3604 C.3      33        0    0.0000
    489 C         183.3359  206.7845  187.6100 C.3      33        0    0.0000
    490 C         182.2235  207.7736  187.9804 C.3      33        0    0.0000
    491 C         180.8857  207.1081  188.3518 C.3      33        0    0.0000
    492 H         182.8907  209.3716  186.6939 H        33        0    0.0000
    493 H         181.1477  209.1172  186.5986 H        33        0    0.0000
    494 H         182.9630  208.1150  184.7658 H        33        0    0.0000
    495 H         181.4136  207.3361  185.0829 H        33        0    0.0000
    496 H         182.3245  205.5705  186.1440 H        33        0    0.0000
    497 H         184.8154  205.1594  185.8757 H        33        0    0.0000
    498 H         184.9958  206.8172  185.3125 H        33        0    0.0000
    499 H         183.3704  205.9105  188.2678 H        33        0    0.0000
    500 H         184.3067  207.2913  187.6859 H        33        0    0.0000
    501 H         182.5493  208.4167  188.8079 H        33        0    0.0000
    502 H         180.7525  206.1598  187.8201 H        33        0    0.0000
    503 H         180.0600  207.7599  188.0414 H        33        0    0.0000
    504 C         179.6851  209.7489  192.0691 C.3      34        0    0.0000
    505 C         179.4309  208.7517  190.9490 C.3      34        0    0.0000
    506 C         180.8207  208.1672  190.6887 C.3      34        0    0.0000
    507 C         180.7584  206.8674  189.8827 C.3      34        0    0.0000
    508 C         181.4269  208.0234  192.0966 C.3      34        0    0.0000
    509 C         180.6510  209.0044  192.9995 C.3      34        0    0.0000
    510 C         181.5166  209.8985  193.8964 C.3      34        0    0.0000
    511 H         178.7603  210.0320  192.5817 H        34        0    0.0000
    512 H         180.1304  210.6597  191.6544 H        34        0    0.0000
    513 H         178.7313  207.9758  191.2829 H        34        0    0.0000
    514 H         179.0109  209.2324  190.0602 H        34        0    0.0000
    515 H         181.4100  208.9134  190.1360 H        34        0    0.0000
    516 H         181.5506  206.1825  190.2077 H        34        0    0.0000
    517 H         179.8053  206.3631  190.0817 H        34        0    0.0000
    518 H         181.2971  207.0046  192.4824 H        34        0    0.0000
    519 H         182.5042  208.2193  192.0756 H        34        0    0.0000
    520 H         180.0370  208.3902  193.6750 H        34        0    0.0000
    521 H         180.9868  210.8404  194.0814 H        34        0    0.0000
    522 H         182.4372  210.1562  193.3594 H        34        0    0.0000
    523 C         179.8938  207.7206  198.0619 C.3      35        0    0.0000
    524 C         180.5389  207.6363  196.6760 C.3      35        0    0.0000
    525 C         180.6879  209.0812  196.1818 C.3      35        0    0.0000
    526 C         181.8993  209.2599  195.2625 C.3      35        0    0.0000
    527 C         180.7484  209.8896  197.4821 C.3      35        0    0.0000
    528 C         179.6799  209.2129  198.3472 C.3      35        0    0.0000
    529 C         179.7681  209.5383  199.8409 C.3      35        0    0.0000
    530 H         178.9451  207.1743  198.0956 H        35        0    0.0000
    531 H         180.5594  207.2617  198.8028 H        35        0    0.0000
    532 H         179.9274  207.0460  195.9852 H        35        0    0.0000
    533 H         181.5120  207.1372  196.7561 H        35        0    0.0000
    534 H         179.7701  209.3548  195.6411 H        35        0    0.0000
    535 H         182.3580  208.2819  195.0739 H        35        0    0.0000
    536 H         182.6612  209.8770  195.7531 H        35        0    0.0000
    537 H         180.5291  210.9490  197.3157 H        35        0    0.0000
    538 H         181.7387  209.8110  197.9479 H        35        0    0.0000
    539 H         178.6882  209.4960  197.9652 H        35        0    0.0000
    540 H         180.3279  210.4682  199.9950 H        35        0    0.0000
    541 H         180.3265  208.7448  200.3519 H        35        0    0.0000
    542 C         179.0111  210.8862  204.0425 C.3      36        0    0.0000
    543 C         179.5138  210.2700  202.7444 C.3      36        0    0.0000
    544 C         178.3478  210.5078  201.7793 C.3      36        0    0.0000
    545 C         178.3682  209.6619  200.5025 C.3      36        0    0.0000
    546 C         177.0759  210.3806  202.6404 C.3      36        0    0.0000
    547 C         177.5555  210.4117  204.1048 C.3      36        0    0.0000
    548 C         176.6552  211.1783  205.0784 C.3      36        0    0.0000
    549 H         179.5911  210.5483  204.9069 H        36        0    0.0000
    550 H         179.0868  211.9777  203.9877 H        36        0    0.0000
    551 H         180.4376  210.7437  202.3979 H        36        0    0.0000
    552 H         179.7138  209.2034  202.8942 H        36        0    0.0000
    553 H         178.4084  211.5588  201.4587 H        36        0    0.0000
    554 H         177.9977  208.6561  200.7335 H        36        0    0.0000
    555 H         177.6716  210.0947  199.7746 H        36        0    0.0000
    556 H         176.5272  209.4510  202.4546 H        36        0    0.0000
    557 H         176.3880  211.1985  202.4003 H        36        0    0.0000
    558 H         177.5749  209.3679  204.4530 H        36        0    0.0000
    559 H         176.9439  210.9275  206.1060 H        36        0    0.0000
    560 H         176.8289  212.2540  204.9560 H        36        0    0.0000
    561 C         174.2748  209.9984  201.4048 C.3      37        0    0.0000
    562 C         175.3635  210.4820  202.3660 C.3      37        0    0.0000
    563 C         174.6474  211.2493  203.4919 C.3      37        0    0.0000
    564 C         175.1333  210.8938  204.9025 C.3      37        0    0.0000
    565 C         173.1630  210.9292  203.2882 C.3      37        0    0.0000
    566 C         173.0061  210.7760  201.7715 C.3      37        0    0.0000
    567 C         172.8990  212.1338  201.0518 C.3      37        0    0.0000
    568 H         174.5753  210.1116  200.3588 H        37        0    0.0000
    569 H         174.1027  208.9280  201.5759 H        37        0    0.0000
    570 H         175.9439  209.6290  202.7346 H        37        0    0.0000
    571 H         176.0618  211.1488  201.8470 H        37        0    0.0000
    572 H         174.7909  212.3258  203.3210 H        37        0    0.0000
    573 H         174.5805  211.4903  205.6380 H        37        0    0.0000
    574 H         174.9244  209.8412  205.1255 H        37        0    0.0000
    575 H         172.5148  211.7061  203.7064 H        37        0    0.0000
    576 H         172.9055  209.9823  203.7801 H        37        0    0.0000
    577 H         172.1141  210.1753  201.5527 H        37        0    0.0000
    578 H         172.7674  212.0003  199.9723 H        37        0    0.0000
    579 H         173.8307  212.6946  201.1922 H        37        0    0.0000
    580 C         168.9815  212.3640  204.1433 C.3      38        0    0.0000
    581 C         170.1236  213.2288  203.6322 C.3      38        0    0.0000
    582 C         170.8854  212.2933  202.6849 C.3      38        0    0.0000
    583 C         171.7279  212.9929  201.6107 C.3      38        0    0.0000
    584 C         169.8381  211.2917  202.1563 C.3      38        0    0.0000
    585 C         168.5231  211.6232  202.8854 C.3      38        0    0.0000
    586 C         167.6508  210.4096  203.2160 C.3      38        0    0.0000
    587 H         169.3466  211.6636  204.9043 H        38        0    0.0000
    588 H         168.1799  212.9635  204.5857 H        38        0    0.0000
    589 H         169.7167  214.1023  203.1114 H        38        0    0.0000
    590 H         170.7583  213.5907  204.4472 H        38        0    0.0000
    591 H         171.5891  211.7149  203.3020 H        38        0    0.0000
    592 H         171.0750  213.2802  200.7778 H        38        0    0.0000
    593 H         172.1362  213.9225  202.0247 H        38        0    0.0000
    594 H         170.1723  210.2720  202.3849 H        38        0    0.0000
    595 H         169.7023  211.3448  201.0710 H        38        0    0.0000
    596 H         167.9523  212.3257  202.2609 H        38        0    0.0000
    597 H         167.3612  209.8899  202.2951 H        38        0    0.0000
    598 H         168.2336  209.6956  203.8101 H        38        0    0.0000
    599 C         164.7211  207.3707  203.9465 C.3      39        0    0.0000
    600 C         165.8927  208.2672  204.3221 C.3      39        0    0.0000
    601 C         165.3291  209.6752  204.1048 C.3      39        0    0.0000
    602 C         166.3716  210.7936  204.0113 C.3      39        0    0.0000
    603 C         164.3789  209.5501  202.8978 C.3      39        0    0.0000
    604 C         164.1720  208.0382  202.6813 C.3      39        0    0.0000
    605 C         162.7560  207.6166  202.2773 C.3      39        0    0.0000
    606 H         165.0378  206.3394  203.7630 H        39        0    0.0000
    607 H         163.9867  207.3616  204.7595 H        39        0    0.0000
    608 H         166.2142  208.1080  205.3560 H        39        0    0.0000
    609 H         166.7441  208.0581  203.6651 H        39        0    0.0000
    610 H         164.7011  209.9058  204.9786 H        39        0    0.0000
    611 H         165.9138  211.6712  203.5398 H        39        0    0.0000
    612 H         166.6640  211.0965  205.0237 H        39        0    0.0000
    613 H         164.7880  209.9978  201.9857 H        39        0    0.0000
    614 H         163.4450  210.0814  203.1105 H        39        0    0.0000
    615 H         164.8339  207.7442  201.8528 H        39        0    0.0000
    616 H         162.8094  207.0112  201.3647 H        39        0    0.0000
    617 H         162.3371  206.9719  203.0590 H        39        0    0.0000
    618 C         158.2196  207.7735  202.2246 C.3      40        0    0.0000
    619 C         159.6808  207.3180  202.2334 C.3      40        0    0.0000
    620 C         160.4656  208.3404  201.3919 C.3      40        0    0.0000
    621 C         161.7790  208.8057  202.0326 C.3      40        0    0.0000
    622 C         159.4807  209.4940  201.1765 C.3      40        0    0.0000
    623 C         158.1059  208.8204  201.1111 C.3      40        0    0.0000
    624 C         157.8183  208.2049  199.7285 C.3      40        0    0.0000
    625 H         157.5309  206.9309  202.1106 H        40        0    0.0000
    626 H         157.9915  208.2471  203.1882 H        40        0    0.0000
    627 H         160.0449  207.2461  203.2642 H        40        0    0.0000
    628 H         159.7722  206.3207  201.7874 H        40        0    0.0000
    629 H         160.6814  207.8886  200.4132 H        40        0    0.0000
    630 H         162.2699  209.5288  201.3704 H        40        0    0.0000
    631 H         161.5814  209.3240  202.9780 H        40        0    0.0000
    632 H         159.7151  210.0705  200.2757 H        40        0    0.0000
    633 H         159.5094  210.1850  202.0290 H        40        0    0.0000
    634 H         157.3254  209.5526  201.3544 H        40        0    0.0000
    635 H         157.3355  207.2260  199.8238 H        40        0    0.0000
    636 H         158.7644  208.0432  199.1983 H        40        0    0.0000
    637 C         154.6882  210.9881  201.1641 C.3      41        0    0.0000
    638 C         155.6376  209.8002  200.9894 C.3      41        0    0.0000
    639 C         155.5625  209.3911  199.5074 C.3      41        0    0.0000
    640 C         156.9272  209.1357  198.8560 C.3      41        0    0.0000
    641 C         154.7993  210.5358  198.8334 C.3      41        0    0.0000
    642 C         153.8184  211.0280  199.9030 C.3      41        0    0.0000
    643 C         152.5645  210.1388  200.0039 C.3      41        0    0.0000
    644 H         154.1152  210.9183  202.0937 H        41        0    0.0000
    645 H         155.2820  211.9094  201.2208 H        41        0    0.0000
    646 H         156.6494  210.0797  201.3030 H        41        0    0.0000
    647 H         155.3218  208.9631  201.6229 H        41        0    0.0000
    648 H         154.9500  208.4812  199.4314 H        41        0    0.0000
    649 H         156.7799  208.6604  197.8788 H        41        0    0.0000
    650 H         157.4476  210.0829  198.6733 H        41        0    0.0000
    651 H         154.2993  210.2107  197.9152 H        41        0    0.0000
    652 H         155.4873  211.3484  198.5663 H        41        0    0.0000
    653 H         153.5176  212.0594  199.6797 H        41        0    0.0000
    654 H         152.2784  209.9752  201.0488 H        41        0    0.0000
    655 H         152.7818  209.1533  199.5751 H        41        0    0.0000
    656 C         149.0738  213.6202  199.2579 C.3      42        0    0.0000
    657 C         149.4290  212.2788  199.8975 C.3      42        0    0.0000
    658 C         150.9550  212.1235  199.7778 C.3      42        0    0.0000
    659 C         151.3601  210.7487  199.2298 C.3      42        0    0.0000
    660 C         151.4005  213.3033  198.9002 C.3      42        0    0.0000
    661 C         150.3810  214.4135  199.1852 C.3      42        0    0.0000
    662 C         150.6469  215.1955  200.4845 C.3      42        0    0.0000
    663 H         148.7029  213.4410  198.2406 H        42        0    0.0000
    664 H         148.2802  214.1394  199.8044 H        42        0    0.0000
    665 H         148.8782  211.4661  199.4115 H        42        0    0.0000
    666 H         149.1410  212.2753  200.9554 H        42        0    0.0000
    667 H         151.3864  212.2503  200.7808 H        42        0    0.0000
    668 H         151.6049  210.8207  198.1637 H        42        0    0.0000
    669 H         150.5102  210.0608  199.3137 H        42        0    0.0000
    670 H         152.4321  213.6033  199.1087 H        42        0    0.0000
    671 H         151.3460  213.0300  197.8383 H        42        0    0.0000
    672 H         150.3408  215.1155  198.3426 H        42        0    0.0000
    673 H         151.2052  214.5894  201.2060 H        42        0    0.0000
    674 H         149.6895  215.4438  200.9586 H        42        0    0.0000
    675 C         151.4111  216.5237  200.2207 C.3      43        0    0.0000
    676 C         151.2572  217.5647  201.3388 C.3      43        0    0.0000
    677 H         152.4750  216.2663  200.1393 H        43        0    0.0000
    678 H         151.1130  216.9348  199.2491 H        43        0    0.0000
    679 H         150.4109  217.3250  201.9932 H        43        0    0.0000
    680 H         152.1581  217.5278  201.9647 H        43        0    0.0000
    681 C         149.1463  218.9178  197.5799 C.3      44        0    0.0000
    682 C         150.0133  218.2322  198.6267 C.3      44        0    0.0000
    683 C         150.0241  219.2440  199.7773 C.3      44        0    0.0000
    684 C         151.1249  219.0394  200.8225 C.3      44        0    0.0000
    685 C         149.9996  220.6285  199.1004 C.3      44        0    0.0000
    686 C         149.6388  220.3680  197.6248 C.3      44        0    0.0000
    687 C         148.7068  221.3990  196.9810 C.3      44        0    0.0000
    688 H         149.2722  218.4712  196.5887 H        44        0    0.0000
    689 H         148.0907  218.8321  197.8601 H        44        0    0.0000
    690 H         149.5987  217.2665  198.9322 H        44        0    0.0000
    691 H         151.0161  218.0589  198.2209 H        44        0    0.0000
    692 H         149.0658  219.1345  200.3073 H        44        0    0.0000
    693 H         152.0859  219.3508  200.3960 H        44        0    0.0000
    694 H         150.9327  219.6964  201.6789 H        44        0    0.0000
    695 H         150.9631  221.1465  199.1557 H        44        0    0.0000
    696 H         149.2736  221.2718  199.6091 H        44        0    0.0000
    697 H         150.5816  220.4023  197.0583 H        44        0    0.0000
    698 H         149.0066  221.5500  195.9371 H        44        0    0.0000
    699 H         147.6869  220.9969  196.9608 H        44        0    0.0000
    700 C         147.7234  222.6606  201.3458 C.3      45        0    0.0000
    701 C         148.2634  221.9852  200.0826 C.3      45        0    0.0000
    702 C         147.7303  222.8002  198.8970 C.3      45        0    0.0000
    703 C         148.6859  222.7809  197.7007 C.3      45        0    0.0000
    704 C         147.4964  224.1872  199.5050 C.3      45        0    0.0000
    705 C         146.8864  223.8556  200.8709 C.3      45        0    0.0000
    706 C         146.9015  225.0123  201.8742 C.3      45        0    0.0000
    707 H         147.1180  221.9691  201.9417 H        45        0    0.0000
    708 H         148.5621  222.9827  201.9745 H        45        0    0.0000
    709 H         147.9404  220.9406  200.0180 H        45        0    0.0000
    710 H         149.3597  221.9852  200.1089 H        45        0    0.0000
    711 H         146.7586  222.3787  198.6008 H        45        0    0.0000
    712 H         149.7015  223.0101  198.0450 H        45        0    0.0000
    713 H         148.4117  223.5624  196.9824 H        45        0    0.0000
    714 H         146.8220  224.7939  198.8923 H        45        0    0.0000
    715 H         148.4425  224.7310  199.6188 H        45        0    0.0000
    716 H         145.8529  223.5114  200.7193 H        45        0    0.0000
    717 H         147.9083  225.4402  201.9460 H        45        0    0.0000
    718 H         146.6485  224.6305  202.8706 H        45        0    0.0000
    719 C         143.3813  226.3407  204.3334 C.3      46        0    0.0000
    720 C         144.6775  225.7826  203.7661 C.3      46        0    0.0000
    721 C         144.5591  226.0594  202.2620 C.3      46        0    0.0000
    722 C         145.8897  226.1306  201.5022 C.3      46        0    0.0000
    723 C         143.6580  227.3052  202.1368 C.3      46        0    0.0000
    724 C         143.2096  227.6543  203.5678 C.3      46        0    0.0000
    725 C         141.7850  228.2036  203.6763 C.3      46        0    0.0000
    726 H         142.5510  225.6532  204.1309 H        46        0    0.0000
    727 H         143.4410  226.4967  205.4148 H        46        0    0.0000
    728 H         145.5288  226.3044  204.2165 H        46        0    0.0000
    729 H         144.7896  224.7146  203.9776 H        46        0    0.0000
    730 H         143.9972  225.2208  201.8243 H        46        0    0.0000
    731 H         145.6879  226.0772  200.4257 H        46        0    0.0000
    732 H         146.3556  227.1059  201.6863 H        46        0    0.0000
    733 H         142.7984  227.0613  201.5001 H        46        0    0.0000
    734 H         144.1650  228.1572  201.6719 H        46        0    0.0000
    735 H         143.9178  228.3880  203.9798 H        46        0    0.0000
    736 H         141.1956  227.9015  202.8025 H        46        0    0.0000
    737 H         141.2939  227.7661  204.5536 H        46        0    0.0000
    738 C         142.7460  230.5730  207.3811 C.3      47        0    0.0000
    739 C         142.2290  229.5836  206.3461 C.3      47        0    0.0000
    740 C         142.5084  230.2989  205.0202 C.3      47        0    0.0000
    741 C         141.7513  229.7523  203.8061 C.3      47        0    0.0000
    742 C         142.2982  231.7970  205.3152 C.3      47        0    0.0000
    743 C         142.2397  231.9183  206.8506 C.3      47        0    0.0000
    744 C         142.9207  233.1565  207.4416 C.3      47        0    0.0000
    745 H         142.3620  230.3551  208.3825 H        47        0    0.0000
    746 H         143.8400  230.5305  207.4196 H        47        0    0.0000
    747 H         142.7432  228.6196  206.4096 H        47        0    0.0000
    748 H         141.1588  229.4094  206.5029 H        47        0    0.0000
    749 H         143.5797  230.1665  204.8060 H        47        0    0.0000
    750 H         140.7059  230.0787  203.8594 H        47        0    0.0000
    751 H         142.1722  230.1915  202.8938 H        47        0    0.0000
    752 H         141.3726  232.1905  204.8814 H        47        0    0.0000
    753 H         143.1167  232.3755  204.8733 H        47        0    0.0000
    754 H         141.1754  231.9879  207.1216 H        47        0    0.0000
    755 H         142.5607  233.3084  208.4661 H        47        0    0.0000
    756 H         143.9996  232.9735  207.5107 H        47        0    0.0000
    757 C         140.8513  232.8715  203.7233 C.3      48        0    0.0000
    758 C         142.1584  233.2234  204.4169 C.3      48        0    0.0000
    759 C         141.7494  234.3046  205.4253 C.3      48        0    0.0000
    760 C         142.6861  234.4655  206.6293 C.3      48        0    0.0000
    761 C         140.2732  234.0175  205.7688 C.3      48        0    0.0000
    762 C         139.8492  232.8347  204.8789 C.3      48        0    0.0000
    763 C         138.4003  232.8900  204.3883 C.3      48        0    0.0000
    764 H         140.5871  233.6477  202.9947 H        48        0    0.0000
    765 H         140.9116  231.9139  203.1971 H        48        0    0.0000
    766 H         142.5636  232.3322  204.9082 H        48        0    0.0000
    767 H         142.9109  233.5872  203.7102 H        48        0    0.0000
    768 H         141.7656  235.2657  204.8900 H        48        0    0.0000
    769 H         143.6555  234.8391  206.2784 H        48        0    0.0000
    770 H         142.2788  235.2310  207.3003 H        48        0    0.0000
    771 H         139.6759  234.9117  205.5515 H        48        0    0.0000
    772 H         140.1165  233.7810  206.8265 H        48        0    0.0000
    773 H         140.0096  231.9052  205.4443 H        48        0    0.0000
    774 H         138.0399  231.8802  204.1589 H        48        0    0.0000
    775 H         137.7608  233.2776  205.1903 H        48        0    0.0000
    776 C         138.3887  236.9323  202.1895 C.3      49        0    0.0000
    777 C         139.1916  235.6999  201.7641 C.3      49        0    0.0000
    778 C         139.3584  234.8332  203.0171 C.3      49        0    0.0000
    779 C         138.2293  233.7919  203.1338 C.3      49        0    0.0000
    780 C         139.3717  235.8837  204.1348 C.3      49        0    0.0000
    781 C         138.2936  236.8897  203.7237 C.3      49        0    0.0000
    782 C         138.4728  238.2491  204.4090 C.3      49        0    0.0000
    783 H         138.8837  237.8399  201.8259 H        49        0    0.0000
    784 H         137.3860  236.9104  201.7476 H        49        0    0.0000
    785 H         140.1797  236.0252  201.4147 H        49        0    0.0000
    786 H         138.7166  235.1697  200.9324 H        49        0    0.0000
    787 H         140.3227  234.3103  202.9818 H        49        0    0.0000
    788 H         138.2381  233.1497  202.2448 H        49        0    0.0000
    789 H         137.2460  234.2734  203.1614 H        49        0    0.0000
    790 H         140.3552  236.3708  204.1638 H        49        0    0.0000
    791 H         139.1831  235.4677  205.1290 H        49        0    0.0000
    792 H         137.3123  236.4778  203.9983 H        49        0    0.0000
    793 H         139.4116  238.7162  204.0898 H        49        0    0.0000
    794 H         138.5426  238.1036  205.4935 H        49        0    0.0000
    795 H         137.6411  238.9216  204.1990 H        49        0    0.0000
    796 H         153.8468  245.3083  117.3794 H         0        0    0.0000
@<TRIPOS>BOND
     1     1     2      1
     2     1     6      1
     3     1     8      1
     4     1     9      1
     5     2     3      1
     6     2    10      1
     7     2    11      1
     8     3     4      1
     9     3     5      1
    10     3    12      1
    11     4    13      1
    12     4    14      1
    13     4   796      H
    14     5     6      1
    15     5    15      1
    16     5    16      1
    17     6     7      1
    18     6    17      1
    19     7    18      1
    20     7    19      1
    21     7    23      1
    22    20    21      1
    23    20    25      1
    24    20    27      1
    25    20    28      1
    26    21    22      1
    27    21    29      1
    28    21    30      1
    29    22    23      1
    30    22    24      1
    31    22    31      1
    32    23    32      1
    33    23    33      1
    34    24    25      1
    35    24    34      1
    36    24    35      1
    37    25    26      1
    38    25    36      1
    39    26    37      1
    40    26    38      1
    41    26    39      1
    42    39    40      1
    43    39    41      1
    44    39    42      1
    45    40    43      1
    46    40    44      1
    47    40    48      1
    48    45    46      1
    49    45    50      1
    50    45    52      1
    51    45    53      1
    52    46    47      1
    53    46    54      1
    54    46    55      1
    55    47    48      1
    56    47    49      1
    57    47    56      1
    58    48    57      1
    59    48    58      1
    60    49    50      1
    61    49    59      1
    62    49    60      1
    63    50    51      1
    64    50    61      1
    65    51    62      1
    66    51    63      1
    67    51    64      1
    68    64    65      1
    69    64    66      1
    70    64    67      1
    71    65    68      1
    72    65    69      1
    73    65    73      1
    74    70    71      1
    75    70    75      1
    76    70    77      1
    77    70    78      1
    78    71    72      1
    79    71    79      1
    80    71    80      1
    81    72    73      1
    82    72    74      1
    83    72    81      1
    84    73    82      1
    85    73    83      1
    86    74    75      1
    87    74    84      1
    88    74    85      1
    89    75    76      1
    90    75    86      1
    91    76    87      1
    92    76    88      1
    93    76    92      1
    94    89    90      1
    95    89    94      1
    96    89    96      1
    97    89    97      1
    98    90    91      1
    99    90    98      1
   100    90    99      1
   101    91    92      1
   102    91    93      1
   103    91   100      1
   104    92   101      1
   105    92   102      1
   106    93    94      1
   107    93   103      1
   108    93   104      1
   109    94    95      1
   110    94   105      1
   111    95   106      1
   112    95   107      1
   113    95   108      1
   114   108   109      1
   115   108   110      1
   116   108   111      1
   117   109   112      1
   118   109   113      1
   119   109   114      1
   120   114   115      1
   121   114   116      1
   122   114   117      1
   123   115   118      1
   124   115   119      1
   125   115   120      1
   126   120   121      1
   127   120   122      1
   128   120   123      1
   129   121   124      1
   130   121   125      1
   131   121   126      1
   132   126   127      1
   133   126   128      1
   134   126   129      1
   135   127   130      1
   136   127   131      1
   137   127   135      1
   138   132   133      1
   139   132   137      1
   140   132   139      1
   141   132   140      1
   142   133   134      1
   143   133   141      1
   144   133   142      1
   145   134   135      1
   146   134   136      1
   147   134   143      1
   148   135   144      1
   149   135   145      1
   150   136   137      1
   151   136   146      1
   152   136   147      1
   153   137   138      1
   154   137   148      1
   155   138   149      1
   156   138   150      1
   157   138   154      1
   158   151   152      1
   159   151   156      1
   160   151   158      1
   161   151   159      1
   162   152   153      1
   163   152   160      1
   164   152   161      1
   165   153   154      1
   166   153   155      1
   167   153   162      1
   168   154   163      1
   169   154   164      1
   170   155   156      1
   171   155   165      1
   172   155   166      1
   173   156   157      1
   174   156   167      1
   175   157   168      1
   176   157   169      1
   177   157   170      1
   178   170   171      1
   179   170   172      1
   180   170   173      1
   181   171   174      1
   182   171   175      1
   183   171   179      1
   184   176   177      1
   185   176   181      1
   186   176   183      1
   187   176   184      1
   188   177   178      1
   189   177   185      1
   190   177   186      1
   191   178   179      1
   192   178   180      1
   193   178   187      1
   194   179   188      1
   195   179   189      1
   196   180   181      1
   197   180   190      1
   198   180   191      1
   199   181   182      1
   200   181   192      1
   201   182   193      1
   202   182   194      1
   203   182   195      1
   204   195   196      1
   205   195   197      1
   206   195   198      1
   207   196   199      1
   208   196   200      1
   209   196   204      1
   210   201   202      1
   211   201   206      1
   212   201   208      1
   213   201   209      1
   214   202   203      1
   215   202   210      1
   216   202   211      1
   217   203   204      1
   218   203   205      1
   219   203   212      1
   220   204   213      1
   221   204   214      1
   222   205   206      1
   223   205   215      1
   224   205   216      1
   225   206   207      1
   226   206   217      1
   227   207   218      1
   228   207   219      1
   229   207   223      1
   230   220   221      1
   231   220   225      1
   232   220   227      1
   233   220   228      1
   234   221   222      1
   235   221   229      1
   236   221   230      1
   237   222   223      1
   238   222   224      1
   239   222   231      1
   240   223   232      1
   241   223   233      1
   242   224   225      1
   243   224   234      1
   244   224   235      1
   245   225   226      1
   246   225   236      1
   247   226   237      1
   248   226   238      1
   249   226   242      1
   250   239   240      1
   251   239   244      1
   252   239   246      1
   253   239   247      1
   254   240   241      1
   255   240   248      1
   256   240   249      1
   257   241   242      1
   258   241   243      1
   259   241   250      1
   260   242   251      1
   261   242   252      1
   262   243   244      1
   263   243   253      1
   264   243   254      1
   265   244   245      1
   266   244   255      1
   267   245   256      1
   268   245   257      1
   269   245   261      1
   270   258   259      1
   271   258   263      1
   272   258   265      1
   273   258   266      1
   274   259   260      1
   275   259   267      1
   276   259   268      1
   277   260   261      1
   278   260   262      1
   279   260   269      1
   280   261   270      1
   281   261   271      1
   282   262   263      1
   283   262   272      1
   284   262   273      1
   285   263   264      1
   286   263   274      1
   287   264   275      1
   288   264   276      1
   289   264   277      1
   290   277   278      1
   291   277   279      1
   292   277   280      1
   293   278   281      1
   294   278   282      1
   295   278   286      1
   296   283   284      1
   297   283   288      1
   298   283   290      1
   299   283   291      1
   300   284   285      1
   301   284   292      1
   302   284   293      1
   303   285   286      1
   304   285   287      1
   305   285   294      1
   306   286   295      1
   307   286   296      1
   308   287   288      1
   309   287   297      1
   310   287   298      1
   311   288   289      1
   312   288   299      1
   313   289   300      1
   314   289   301      1
   315   289   305      1
   316   302   303      1
   317   302   307      1
   318   302   309      1
   319   302   310      1
   320   303   304      1
   321   303   311      1
   322   303   312      1
   323   304   305      1
   324   304   306      1
   325   304   313      1
   326   305   314      1
   327   305   315      1
   328   306   307      1
   329   306   316      1
   330   306   317      1
   331   307   308      1
   332   307   318      1
   333   308   319      1
   334   308   320      1
   335   308   324      1
   336   321   322      1
   337   321   326      1
   338   321   328      1
   339   321   329      1
   340   322   323      1
   341   322   330      1
   342   322   331      1
   343   323   324      1
   344   323   325      1
   345   323   332      1
   346   324   333      1
   347   324   334      1
   348   325   326      1
   349   325   335      1
   350   325   336      1
   351   326   327      1
   352   326   337      1
   353   327   338      1
   354   327   339      1
   355   327   343      1
   356   340   341      1
   357   340   345      1
   358   340   347      1
   359   340   348      1
   360   341   342      1
   361   341   349      1
   362   341   350      1
   363   342   343      1
   364   342   344      1
   365   342   351      1
   366   343   352      1
   367   343   353      1
   368   344   345      1
   369   344   354      1
   370   344   355      1
   371   345   346      1
   372   345   356      1
   373   346   357      1
   374   346   358      1
   375   346   362      1
   376   359   360      1
   377   359   364      1
   378   359   366      1
   379   359   367      1
   380   360   361      1
   381   360   368      1
   382   360   369      1
   383   361   362      1
   384   361   363      1
   385   361   370      1
   386   362   371      1
   387   362   372      1
   388   363   364      1
   389   363   373      1
   390   363   374      1
   391   364   365      1
   392   364   375      1
   393   365   376      1
   394   365   377      1
   395   365   381      1
   396   378   379      1
   397   378   383      1
   398   378   385      1
   399   378   386      1
   400   379   380      1
   401   379   387      1
   402   379   388      1
   403   380   381      1
   404   380   382      1
   405   380   389      1
   406   381   390      1
   407   381   391      1
   408   382   383      1
   409   382   392      1
   410   382   393      1
   411   383   384      1
   412   383   394      1
   413   384   395      1
   414   384   396      1
   415   384   397      1
   416   397   398      1
   417   397   399      1
   418   397   400      1
   419   398   401      1
   420   398   402      1
   421   398   406      1
   422   403   404      1
   423   403   408      1
   424   403   410      1
   425   403   411      1
   426   404   405      1
   427   404   412      1
   428   404   413      1
   429   405   406      1
   430   405   407      1
   431   405   414      1
   432   406   415      1
   433   406   416      1
   434   407   408      1
   435   407   417      1
   436   407   418      1
   437   408   409      1
   438   408   419      1
   439   409   420      1
   440   409   421      1
   441   409   425      1
   442   422   423      1
   443   422   427      1
   444   422   429      1
   445   422   430      1
   446   423   424      1
   447   423   431      1
   448   423   432      1
   449   424   425      1
   450   424   426      1
   451   424   433      1
   452   425   434      1
   453   425   435      1
   454   426   427      1
   455   426   436      1
   456   426   437      1
   457   427   428      1
   458   427   438      1
   459   428   439      1
   460   428   440      1
   461   428   444      1
   462   441   442      1
   463   441   446      1
   464   441   448      1
   465   441   449      1
   466   442   443      1
   467   442   450      1
   468   442   451      1
   469   443   444      1
   470   443   445      1
   471   443   452      1
   472   444   453      1
   473   444   454      1
   474   445   446      1
   475   445   455      1
   476   445   456      1
   477   446   447      1
   478   446   457      1
   479   447   458      1
   480   447   459      1
   481   447   463      1
   482   460   461      1
   483   460   465      1
   484   460   467      1
   485   460   468      1
   486   461   462      1
   487   461   469      1
   488   461   470      1
   489   462   463      1
   490   462   464      1
   491   462   471      1
   492   463   472      1
   493   463   473      1
   494   464   465      1
   495   464   474      1
   496   464   475      1
   497   465   466      1
   498   465   476      1
   499   466   477      1
   500   466   478      1
   501   466   479      1
   502   479   480      1
   503   479   481      1
   504   479   482      1
   505   480   483      1
   506   480   484      1
   507   480   488      1
   508   485   486      1
   509   485   490      1
   510   485   492      1
   511   485   493      1
   512   486   487      1
   513   486   494      1
   514   486   495      1
   515   487   488      1
   516   487   489      1
   517   487   496      1
   518   488   497      1
   519   488   498      1
   520   489   490      1
   521   489   499      1
   522   489   500      1
   523   490   491      1
   524   490   501      1
   525   491   502      1
   526   491   503      1
   527   491   507      1
   528   504   505      1
   529   504   509      1
   530   504   511      1
   531   504   512      1
   532   505   506      1
   533   505   513      1
   534   505   514      1
   535   506   507      1
   536   506   508      1
   537   506   515      1
   538   507   516      1
   539   507   517      1
   540   508   509      1
   541   508   518      1
   542   508   519      1
   543   509   510      1
   544   509   520      1
   545   510   521      1
   546   510   522      1
   547   510   526      1
   548   523   524      1
   549   523   528      1
   550   523   530      1
   551   523   531      1
   552   524   525      1
   553   524   532      1
   554   524   533      1
   555   525   526      1
   556   525   527      1
   557   525   534      1
   558   526   535      1
   559   526   536      1
   560   527   528      1
   561   527   537      1
   562   527   538      1
   563   528   529      1
   564   528   539      1
   565   529   540      1
   566   529   541      1
   567   529   545      1
   568   542   543      1
   569   542   547      1
   570   542   549      1
   571   542   550      1
   572   543   544      1
   573   543   551      1
   574   543   552      1
   575   544   545      1
   576   544   546      1
   577   544   553      1
   578   545   554      1
   579   545   555      1
   580   546   547      1
   581   546   556      1
   582   546   557      1
   583   547   548      1
   584   547   558      1
   585   548   559      1
   586   548   560      1
   587   548   564      1
   588   561   562      1
   589   561   566      1
   590   561   568      1
   591   561   569      1
   592   562   563      1
   593   562   570      1
   594   562   571      1
   595   563   564      1
   596   563   565      1
   597   563   572      1
   598   564   573      1
   599   564   574      1
   600   565   566      1
   601   565   575      1
   602   565   576      1
   603   566   567      1
   604   566   577      1
   605   567   578      1
   606   567   579      1
   607   567   583      1
   608   580   581      1
   609   580   585      1
   610   580   587      1
   611   580   588      1
   612   581   582      1
   613   581   589      1
   614   581   590      1
   615   582   583      1
   616   582   584      1
   617   582   591      1
   618   583   592      1
   619   583   593      1
   620   584   585      1
   621   584   594      1
   622   584   595      1
   623   585   586      1
   624   585   596      1
   625   586   597      1
   626   586   598      1
   627   586   602      1
   628   599   600      1
   629   599   604      1
   630   599   606      1
   631   599   607      1
   632   600   601      1
   633   600   608      1
   634   600   609      1
   635   601   602      1
   636   601   603      1
   637   601   610      1
   638   602   611      1
   639   602   612      1
   640   603   604      1
   641   603   613      1
   642   603   614      1
   643   604   605      1
   644   604   615      1
   645   605   616      1
   646   605   617      1
   647   605   621      1
   648   618   619      1
   649   618   623      1
   650   618   625      1
   651   618   626      1
   652   619   620      1
   653   619   627      1
   654   619   628      1
   655   620   621      1
   656   620   622      1
   657   620   629      1
   658   621   630      1
   659   621   631      1
   660   622   623      1
   661   622   632      1
   662   622   633      1
   663   623   624      1
   664   623   634      1
   665   624   635      1
   666   624   636      1
   667   624   640      1
   668   637   638      1
   669   637   642      1
   670   637   644      1
   671   637   645      1
   672   638   639      1
   673   638   646      1
   674   638   647      1
   675   639   640      1
   676   639   641      1
   677   639   648      1
   678   640   649      1
   679   640   650      1
   680   641   642      1
   681   641   651      1
   682   641   652      1
   683   642   643      1
   684   642   653      1
   685   643   654      1
   686   643   655      1
   687   643   659      1
   688   656   657      1
   689   656   661      1
   690   656   663      1
   691   656   664      1
   692   657   658      1
   693   657   665      1
   694   657   666      1
   695   658   659      1
   696   658   660      1
   697   658   667      1
   698   659   668      1
   699   659   669      1
   700   660   661      1
   701   660   670      1
   702   660   671      1
   703   661   662      1
   704   661   672      1
   705   662   673      1
   706   662   674      1
   707   662   675      1
   708   675   676      1
   709   675   677      1
   710   675   678      1
   711   676   679      1
   712   676   680      1
   713   676   684      1
   714   681   682      1
   715   681   686      1
   716   681   688      1
   717   681   689      1
   718   682   683      1
   719   682   690      1
   720   682   691      1
   721   683   684      1
   722   683   685      1
   723   683   692      1
   724   684   693      1
   725   684   694      1
   726   685   686      1
   727   685   695      1
   728   685   696      1
   729   686   687      1
   730   686   697      1
   731   687   698      1
   732   687   699      1
   733   687   703      1
   734   700   701      1
   735   700   705      1
   736   700   707      1
   737   700   708      1
   738   701   702      1
   739   701   709      1
   740   701   710      1
   741   702   703      1
   742   702   704      1
   743   702   711      1
   744   703   712      1
   745   703   713      1
   746   704   705      1
   747   704   714      1
   748   704   715      1
   749   705   706      1
   750   705   716      1
   751   706   717      1
   752   706   718      1
   753   706   722      1
   754   719   720      1
   755   719   724      1
   756   719   726      1
   757   719   727      1
   758   720   721      1
   759   720   728      1
   760   720   729      1
   761   721   722      1
   762   721   723      1
   763   721   730      1
   764   722   731      1
   765   722   732      1
   766   723   724      1
   767   723   733      1
   768   723   734      1
   769   724   725      1
   770   724   735      1
   771   725   736      1
   772   725   737      1
   773   725   741      1
   774   738   739      1
   775   738   743      1
   776   738   745      1
   777   738   746      1
   778   739   740      1
   779   739   747      1
   780   739   748      1
   781   740   741      1
   782   740   742      1
   783   740   749      1
   784   741   750      1
   785   741   751      1
   786   742   743      1
   787   742   752      1
   788   742   753      1
   789   743   744      1
   790   743   754      1
   791   744   755      1
   792   744   756      1
   793   744   760      1
   794   757   758      1
   795   757   762      1
   796   757   764      1
   797   757   765      1
   798   758   759      1
   799   758   766      1
   800   758   767      1
   801   759   760      1
   802   759   761      1
   803   759   768      1
   804   760   769      1
   805   760   770      1
   806   761   762      1
   807   761   771      1
   808   761   772      1
   809   762   763      1
   810   762   773      1
   811   763   774      1
   812   763   775      1
   813   763   779      1
   814   776   777      1
   815   776   781      1
   816   776   783      1
   817   776   784      1
   818   777   778      1
   819   777   785      1
   820   777   786      1
   821   778   779      1
   822   778   780      1
   823   778   787      1
   824   779   788      1
   825   779   789      1
   826   780   781      1
   827   780   790      1
   828   780   791      1
   829   781   782      1
   830   781   792      1
   831   782   793      1
   832   782   794      1
   833   782   795      H
