###
### Created by PolyChef-cpp17 on Wed Feb 26 21:14:13 2025
###

@<TRIPOS>MOLECULE
NO_INFO
777 813 1 0 0
SMALL
USER_CHARGES


@<TRIPOS>ATOM
      1 C         121.6849  122.6012   53.3542 C.3       0        0    0.0000
      2 C         121.4035  121.4409   54.2986 C.3       0        0    0.0000
      3 C         121.6135  122.0669   55.6812 C.3       0        0    0.0000
      4 C         121.7964  121.0729   56.8321 C.3       0        0    0.0000
      5 C         122.7546  123.0862   55.4959 C.3       0        0    0.0000
      6 C         122.9261  123.2524   53.9733 C.3       0        0    0.0000
      7 C         123.2302  124.6751   53.4943 C.3       0        0    0.0000
      8 H         121.8669  122.2601   52.3303 H         0        0    0.0000
      9 H         120.8268  123.2821   53.3385 H         0        0    0.0000
     10 H         120.3891  121.0494   54.1742 H         0        0    0.0000
     11 H         122.1090  120.6257   54.1037 H         0        0    0.0000
     12 H         120.7064  122.6464   55.9100 H         0        0    0.0000
     13 H         122.4051  120.2300   56.4838 H         0        0    0.0000
     14 H         122.3606  121.5573   57.6378 H         0        0    0.0000
     15 H         123.7000  122.7516   55.9364 H         0        0    0.0000
     16 H         122.4938  124.0232   55.9997 H         0        0    0.0000
     17 H         123.7889  122.6339   53.6832 H         0        0    0.0000
     18 H         123.5951  124.6348   52.4611 H         0        0    0.0000
     19 H         122.2993  125.2542   53.4772 H         0        0    0.0000
     20 C         127.7597  124.5300   55.2694 C.3       1        0    0.0000
     21 C         126.6589  124.4581   54.2083 C.3       1        0    0.0000
     22 C         125.3177  124.4808   54.9632 C.3       1        0    0.0000
     23 C         124.2759  125.4342   54.3652 C.3       1        0    0.0000
     24 C         125.6946  124.8554   56.4002 C.3       1        0    0.0000
     25 C         127.0794  124.2338   56.6104 C.3       1        0    0.0000
     26 C         127.0053  122.7291   56.9323 C.3       1        0    0.0000
     27 H         128.5923  123.8586   55.0387 H         1        0    0.0000
     28 H         128.1650  125.5498   55.2892 H         1        0    0.0000
     29 H         126.7640  125.2893   53.5023 H         1        0    0.0000
     30 H         126.7454  123.5301   53.6312 H         1        0    0.0000
     31 H         124.9099  123.4599   54.9725 H         1        0    0.0000
     32 H         123.7460  125.9480   55.1761 H         1        0    0.0000
     33 H         124.7661  126.2092   53.7648 H         1        0    0.0000
     34 H         124.9544  124.4996   57.1243 H         1        0    0.0000
     35 H         125.7634  125.9459   56.5051 H         1        0    0.0000
     36 H         127.5976  124.7563   57.4245 H         1        0    0.0000
     37 H         127.9983  122.2674   56.8967 H         1        0    0.0000
     38 H         126.3923  122.2249   56.1758 H         1        0    0.0000
     39 C         126.3657  122.4677   58.3267 C.3       2        0    0.0000
     40 C         127.0952  121.4026   59.1579 C.3       2        0    0.0000
     41 H         126.4070  123.4163   58.8771 H         2        0    0.0000
     42 H         125.3042  122.2214   58.2059 H         2        0    0.0000
     43 H         126.6847  120.4028   58.9739 H         2        0    0.0000
     44 H         128.1432  121.3761   58.8330 H         2        0    0.0000
     45 C         128.2923  125.0785   59.7442 C.3       3        0    0.0000
     46 C         128.6461  123.5956   59.8805 C.3       3        0    0.0000
     47 C         127.7729  123.0376   61.0187 C.3       3        0    0.0000
     48 C         127.1062  121.6940   60.6985 C.3       3        0    0.0000
     49 C         126.7508  124.1452   61.2940 C.3       3        0    0.0000
     50 C         127.5062  125.4472   61.0071 C.3       3        0    0.0000
     51 C         128.4097  125.8730   62.1799 C.3       3        0    0.0000
     52 H         129.1808  125.6959   59.5811 H         3        0    0.0000
     53 H         127.6452  125.2081   58.8672 H         3        0    0.0000
     54 H         128.4817  123.0818   58.9269 H         3        0    0.0000
     55 H         129.7063  123.4780   60.1332 H         3        0    0.0000
     56 H         128.4026  122.9244   61.9128 H         3        0    0.0000
     57 H         127.6538  120.8880   61.2013 H         3        0    0.0000
     58 H         126.0816  121.6727   61.0875 H         3        0    0.0000
     59 H         126.3591  124.0970   62.3153 H         3        0    0.0000
     60 H         125.8986  124.0578   60.6077 H         3        0    0.0000
     61 H         126.7887  126.2485   60.7892 H         3        0    0.0000
     62 H         129.2210  126.5251   61.8380 H         3        0    0.0000
     63 H         128.8788  124.9845   62.6191 H         3        0    0.0000
     64 C         127.6034  126.5969   63.2969 C.3       4        0    0.0000
     65 C         127.1416  125.6720   64.4321 C.3       4        0    0.0000
     66 H         128.2688  127.3568   63.7262 H         4        0    0.0000
     67 H         126.7582  127.1355   62.8524 H         4        0    0.0000
     68 H         127.4206  124.6300   64.2362 H         4        0    0.0000
     69 H         127.6661  125.9702   65.3489 H         4        0    0.0000
     70 C         124.2197  127.8820   62.6550 C.3       5        0    0.0000
     71 C         125.4460  128.0023   63.5638 C.3       5        0    0.0000
     72 C         125.1226  127.2178   64.8401 C.3       5        0    0.0000
     73 C         125.6066  125.7589   64.7402 C.3       5        0    0.0000
     74 C         123.6000  127.3768   64.9378 C.3       5        0    0.0000
     75 C         123.1094  127.2293   63.4953 C.3       5        0    0.0000
     76 C         121.7168  127.8356   63.2882 C.3       5        0    0.0000
     77 H         123.9357  128.8732   62.2837 H         5        0    0.0000
     78 H         124.4472  127.2610   61.7810 H         5        0    0.0000
     79 H         125.5960  129.0595   63.8168 H         5        0    0.0000
     80 H         126.3589  127.6597   63.0660 H         5        0    0.0000
     81 H         125.6059  127.6950   65.7024 H         5        0    0.0000
     82 H         125.0644  125.2540   63.9316 H         5        0    0.0000
     83 H         125.3863  125.2035   65.6581 H         5        0    0.0000
     84 H         123.3631  128.3785   65.3196 H         5        0    0.0000
     85 H         123.1260  126.6513   65.6056 H         5        0    0.0000
     86 H         123.0731  126.1588   63.2491 H         5        0    0.0000
     87 H         121.2592  127.4369   62.3754 H         5        0    0.0000
     88 H         121.8085  128.9195   63.1507 H         5        0    0.0000
     89 C         122.9558  127.9518   67.5583 C.3       6        0    0.0000
     90 C         122.7662  127.9839   66.0395 C.3       6        0    0.0000
     91 C         121.5523  127.0952   65.7381 C.3       6        0    0.0000
     92 C         120.7811  127.5633   64.5009 C.3       6        0    0.0000
     93 C         120.7529  127.1429   67.0446 C.3       6        0    0.0000
     94 C         121.8485  127.0450   68.1114 C.3       6        0    0.0000
     95 C         121.4074  127.4571   69.5186 C.3       6        0    0.0000
     96 H         123.9466  127.5722   67.8300 H         6        0    0.0000
     97 H         122.8773  128.9701   67.9575 H         6        0    0.0000
     98 H         123.6579  127.6210   65.5171 H         6        0    0.0000
     99 H         122.5974  129.0175   65.7144 H         6        0    0.0000
    100 H         121.9104  126.0670   65.5833 H         6        0    0.0000
    101 H         120.2411  128.4875   64.7391 H         6        0    0.0000
    102 H         120.0262  126.8198   64.2195 H         6        0    0.0000
    103 H         120.0373  126.3177   67.1164 H         6        0    0.0000
    104 H         120.2012  128.0871   67.1334 H         6        0    0.0000
    105 H         122.2284  126.0131   68.1305 H         6        0    0.0000
    106 H         122.2675  127.8132   70.0977 H         6        0    0.0000
    107 H         121.0128  126.5802   70.0455 H         6        0    0.0000
    108 C         120.3091  128.5554   69.4957 C.3       7        0    0.0000
    109 C         120.0381  129.1952   70.8649 C.3       7        0    0.0000
    110 H         120.6617  129.3419   68.8162 H         7        0    0.0000
    111 H         119.3904  128.1499   69.0560 H         7        0    0.0000
    112 H         119.8204  128.4351   71.6243 H         7        0    0.0000
    113 H         120.9528  129.7084   71.1879 H         7        0    0.0000
    114 C         118.8967  130.2703   70.8510 C.3       8        0    0.0000
    115 C         117.8357  130.0679   71.9422 C.3       8        0    0.0000
    116 H         118.4005  130.1930   69.8751 H         8        0    0.0000
    117 H         119.3343  131.2743   70.9014 H         8        0    0.0000
    118 H         117.8142  129.0020   72.2026 H         8        0    0.0000
    119 H         118.0980  130.6092   72.8588 H         8        0    0.0000
    120 C         116.3827  130.4547   71.4976 C.3       9        0    0.0000
    121 C         115.2855  129.5826   72.1245 C.3       9        0    0.0000
    122 H         116.2185  131.4914   71.8185 H         9        0    0.0000
    123 H         116.3180  130.4515   70.4032 H         9        0    0.0000
    124 H         115.2342  129.7255   73.2103 H         9        0    0.0000
    125 H         114.3188  129.9080   71.7192 H         9        0    0.0000
    126 C         115.4219  128.0550   71.7985 C.3      10        0    0.0000
    127 C         114.2783  127.1940   72.3539 C.3      10        0    0.0000
    128 H         116.3584  127.7151   72.2589 H        10        0    0.0000
    129 H         115.5362  127.9168   70.7169 H        10        0    0.0000
    130 H         113.6569  126.8679   71.5100 H        10        0    0.0000
    131 H         114.6600  126.2842   72.8319 H        10        0    0.0000
    132 C         111.6256  125.7437   75.9232 C.3      11        0    0.0000
    133 C         112.4424  126.9800   75.5744 C.3      11        0    0.0000
    134 C         112.3078  127.0598   74.0502 C.3      11        0    0.0000
    135 C         113.3318  127.9549   73.3457 C.3      11        0    0.0000
    136 C         112.2627  125.5960   73.5698 C.3      11        0    0.0000
    137 C         112.0344  124.7458   74.8348 C.3      11        0    0.0000
    138 C         111.1023  123.5425   74.6624 C.3      11        0    0.0000
    139 H         111.8533  125.3731   76.9275 H        11        0    0.0000
    140 H         110.5571  125.9827   75.8829 H        11        0    0.0000
    141 H         112.0574  127.8773   76.0688 H        11        0    0.0000
    142 H         113.4820  126.8376   75.8895 H        11        0    0.0000
    143 H         111.3178  127.4919   73.8397 H        11        0    0.0000
    144 H         112.8014  128.7400   72.7940 H        11        0    0.0000
    145 H         113.9457  128.4602   74.1007 H        11        0    0.0000
    146 H         113.1897  125.2803   73.0790 H        11        0    0.0000
    147 H         111.4652  125.4786   72.8282 H        11        0    0.0000
    148 H         113.0159  124.3415   75.1251 H        11        0    0.0000
    149 H         110.6855  123.5550   73.6483 H        11        0    0.0000
    150 H         111.6880  122.6199   74.7509 H        11        0    0.0000
    151 C         110.4562  125.6827   78.7091 C.3      12        0    0.0000
    152 C         110.7809  125.2981   77.2633 C.3      12        0    0.0000
    153 C         110.3811  123.8248   77.1095 C.3      12        0    0.0000
    154 C         109.9283  123.4902   75.6856 C.3      12        0    0.0000
    155 C         109.3020  123.6429   78.1821 C.3      12        0    0.0000
    156 C         109.8739  124.4257   79.3687 C.3      12        0    0.0000
    157 C         108.8558  124.7608   80.4622 C.3      12        0    0.0000
    158 H         111.3490  126.0279   79.2416 H        12        0    0.0000
    159 H         109.7354  126.5091   78.7139 H        12        0    0.0000
    160 H         111.8435  125.4421   77.0398 H        12        0    0.0000
    161 H         110.2149  125.9411   76.5786 H        12        0    0.0000
    162 H         111.2492  123.2046   77.3766 H        12        0    0.0000
    163 H         109.1603  124.2074   75.3721 H        12        0    0.0000
    164 H         109.4638  122.4975   75.6576 H        12        0    0.0000
    165 H         109.1424  122.5880   78.4268 H        12        0    0.0000
    166 H         108.3460  124.0697   77.8539 H        12        0    0.0000
    167 H         110.7048  123.8496   79.8013 H        12        0    0.0000
    168 H         108.5941  125.8248   80.4250 H        12        0    0.0000
    169 H         109.3076  124.5805   81.4450 H        12        0    0.0000
    170 C         107.5636  123.9063   80.3484 C.3      13        0    0.0000
    171 C         106.4937  124.2508   81.3944 C.3      13        0    0.0000
    172 H         107.1421  124.1001   79.3537 H        13        0    0.0000
    173 H         107.8213  122.8411   80.3774 H        13        0    0.0000
    174 H         106.9145  124.2618   82.4067 H        13        0    0.0000
    175 H         106.1353  125.2683   81.1925 H        13        0    0.0000
    176 C         107.0116  120.5806   79.6618 C.3      14        0    0.0000
    177 C         107.0681  121.6318   80.7693 C.3      14        0    0.0000
    178 C         105.6245  121.8303   81.2628 C.3      14        0    0.0000
    179 C         105.2381  123.3124   81.3544 C.3      14        0    0.0000
    180 C         104.7617  121.0176   80.2852 C.3      14        0    0.0000
    181 C         105.6662  119.8682   79.8230 C.3      14        0    0.0000
    182 C         105.7564  118.6972   80.8184 C.3      14        0    0.0000
    183 H         107.0373  121.0883   78.6891 H        14        0    0.0000
    184 H         107.8695  119.9016   79.6947 H        14        0    0.0000
    185 H         107.5220  122.5561   80.3957 H        14        0    0.0000
    186 H         107.6940  121.2772   81.5967 H        14        0    0.0000
    187 H         105.5443  121.3772   82.2610 H        14        0    0.0000
    188 H         104.6163  123.4900   82.2396 H        14        0    0.0000
    189 H         104.6312  123.5829   80.4819 H        14        0    0.0000
    190 H         103.8315  120.6732   80.7475 H        14        0    0.0000
    191 H         104.4893  121.6315   79.4167 H        14        0    0.0000
    192 H         105.3294  119.4899   78.8494 H        14        0    0.0000
    193 H         106.1606  117.7988   80.3397 H        14        0    0.0000
    194 H         104.7482  118.4403   81.1657 H        14        0    0.0000
    195 C         106.6170  119.0540   82.0634 C.3      15        0    0.0000
    196 C         107.1200  117.8319   82.8451 C.3      15        0    0.0000
    197 H         107.4912  119.6068   81.6964 H        15        0    0.0000
    198 H         106.0612  119.7413   82.7121 H        15        0    0.0000
    199 H         106.2894  117.1870   83.1548 H        15        0    0.0000
    200 H         107.7485  117.2333   82.1734 H        15        0    0.0000
    201 C         109.9372  121.2255   83.3659 C.3      16        0    0.0000
    202 C         108.7594  120.3457   82.9493 C.3      16        0    0.0000
    203 C         108.2113  119.7044   84.2359 C.3      16        0    0.0000
    204 C         108.0027  118.1913   84.0903 C.3      16        0    0.0000
    205 C         109.2192  120.0952   85.3278 C.3      16        0    0.0000
    206 C         109.7885  121.4453   84.8736 C.3      16        0    0.0000
    207 C         108.8824  122.6497   85.1879 C.3      16        0    0.0000
    208 H         110.8714  120.6836   83.1703 H        16        0    0.0000
    209 H         109.9779  122.1571   82.7929 H        16        0    0.0000
    210 H         109.0789  119.6063   82.2068 H        16        0    0.0000
    211 H         107.9780  120.9556   82.4808 H        16        0    0.0000
    212 H         107.2461  120.1785   84.4640 H        16        0    0.0000
    213 H         107.5451  117.7808   84.9978 H        16        0    0.0000
    214 H         108.9770  117.7007   83.9773 H        16        0    0.0000
    215 H         108.7559  120.1356   86.3184 H        16        0    0.0000
    216 H         110.0332  119.3602   85.3754 H        16        0    0.0000
    217 H         110.7765  121.6093   85.3223 H        16        0    0.0000
    218 H         107.8393  122.3403   85.3134 H        16        0    0.0000
    219 H         108.9026  123.3471   84.3416 H        16        0    0.0000
    220 C         112.0344  126.0702   86.4977 C.3      17        0    0.0000
    221 C         110.7739  125.4531   85.8860 C.3      17        0    0.0000
    222 C         110.7698  123.9772   86.3057 C.3      17        0    0.0000
    223 C         109.3520  123.4186   86.4553 C.3      17        0    0.0000
    224 C         111.5944  123.9802   87.5972 C.3      17        0    0.0000
    225 C         112.7394  124.9416   87.2615 C.3      17        0    0.0000
    226 C         113.5162  125.4575   88.4759 C.3      17        0    0.0000
    227 H         112.6886  126.4910   85.7266 H        17        0    0.0000
    228 H         111.7509  126.8915   87.1668 H        17        0    0.0000
    229 H         110.7692  125.5511   84.7951 H        17        0    0.0000
    230 H         109.8894  125.9800   86.2634 H        17        0    0.0000
    231 H         111.3149  123.4025   85.5428 H        17        0    0.0000
    232 H         108.6550  124.2448   86.6401 H        17        0    0.0000
    233 H         109.2944  122.7557   87.3265 H        17        0    0.0000
    234 H         111.9610  122.9804   87.8507 H        17        0    0.0000
    235 H         111.0015  124.3548   88.4411 H        17        0    0.0000
    236 H         113.4288  124.4376   86.5685 H        17        0    0.0000
    237 H         113.3262  126.5272   88.6225 H        17        0    0.0000
    238 H         114.5916  125.3501   88.2901 H        17        0    0.0000
    239 C         116.3616  125.8287   91.2657 C.3      18        0    0.0000
    240 C         115.4667  124.6328   90.9312 C.3      18        0    0.0000
    241 C         114.0160  125.1462   90.9631 C.3      18        0    0.0000
    242 C         113.1603  124.6861   89.7764 C.3      18        0    0.0000
    243 C         114.1517  126.6708   91.0282 C.3      18        0    0.0000
    244 C         115.4346  126.9099   91.8316 C.3      18        0    0.0000
    245 C         115.2096  126.7804   93.3500 C.3      18        0    0.0000
    246 H         117.1783  125.5507   91.9387 H        18        0    0.0000
    247 H         116.8200  126.1969   90.3389 H        18        0    0.0000
    248 H         115.7487  124.2140   89.9588 H        18        0    0.0000
    249 H         115.5969  123.8388   91.6758 H        18        0    0.0000
    250 H         113.5498  124.8048   91.8984 H        18        0    0.0000
    251 H         113.3256  123.6162   89.6026 H        18        0    0.0000
    252 H         112.0948  124.8105   90.0016 H        18        0    0.0000
    253 H         113.2728  127.1418   91.4804 H        18        0    0.0000
    254 H         114.2689  127.0873   90.0194 H        18        0    0.0000
    255 H         115.8301  127.9082   91.6048 H        18        0    0.0000
    256 H         114.6407  125.8754   93.5901 H        18        0    0.0000
    257 H         114.6171  127.6324   93.7041 H        18        0    0.0000
    258 C         119.2984  125.0682   92.3020 C.3      19        0    0.0000
    259 C         117.8129  125.4368   92.3165 C.3      19        0    0.0000
    260 C         117.3972  125.5310   93.7955 C.3      19        0    0.0000
    261 C         116.5540  126.7665   94.1339 C.3      19        0    0.0000
    262 C         118.7204  125.4985   94.5670 C.3      19        0    0.0000
    263 C         119.6370  124.6059   93.7234 C.3      19        0    0.0000
    264 C         119.3693  123.1062   93.9522 C.3      19        0    0.0000
    265 H         119.5267  124.3269   91.5304 H        19        0    0.0000
    266 H         119.8830  125.9670   92.0673 H        19        0    0.0000
    267 H         117.6535  126.3724   91.7692 H        19        0    0.0000
    268 H         117.2228  124.6623   91.8127 H        19        0    0.0000
    269 H         116.8299  124.6250   94.0527 H        19        0    0.0000
    270 H         116.3308  126.7709   95.2075 H        19        0    0.0000
    271 H         117.1162  127.6834   93.9226 H        19        0    0.0000
    272 H         118.5902  125.1287   95.5892 H        19        0    0.0000
    273 H         119.1499  126.5067   94.6314 H        19        0    0.0000
    274 H         120.6855  124.8297   93.9576 H        19        0    0.0000
    275 H         119.5286  122.5311   93.0333 H        19        0    0.0000
    276 H         118.3209  122.9634   94.2397 H        19        0    0.0000
    277 C         120.2653  122.5258   95.0845 C.3      20        0    0.0000
    278 C         119.5997  122.5254   96.4682 C.3      20        0    0.0000
    279 H         120.4856  121.4856   94.8124 H        20        0    0.0000
    280 H         121.2253  123.0548   95.1039 H        20        0    0.0000
    281 H         118.5308  122.7584   96.3968 H        20        0    0.0000
    282 H         119.6728  121.5110   96.8809 H        20        0    0.0000
    283 C         123.4637  123.9324   99.2780 C.3      21        0    0.0000
    284 C         122.2520  123.0273   99.0606 C.3      21        0    0.0000
    285 C         121.7936  123.2454   97.6082 C.3      21        0    0.0000
    286 C         120.2818  123.4854   97.5035 C.3      21        0    0.0000
    287 C         122.6500  124.4152   97.0994 C.3      21        0    0.0000
    288 C         123.9651  124.3105   97.8820 C.3      21        0    0.0000
    289 C         124.9483  123.2642   97.3260 C.3      21        0    0.0000
    290 H         123.1391  124.8397   99.8033 H        21        0    0.0000
    291 H         124.2277  123.4549   99.8996 H        21        0    0.0000
    292 H         121.4697  123.2539   99.7933 H        21        0    0.0000
    293 H         122.5328  121.9772   99.2038 H        21        0    0.0000
    294 H         122.0537  122.3449   97.0340 H        21        0    0.0000
    295 H         120.0796  124.5273   97.2295 H        21        0    0.0000
    296 H         119.8203  123.3209   98.4847 H        21        0    0.0000
    297 H         122.7913  124.3790   96.0148 H        21        0    0.0000
    298 H         122.1667  125.3721   97.3360 H        21        0    0.0000
    299 H         124.4615  125.2886   97.9200 H        21        0    0.0000
    300 H         124.4270  122.5037   96.7349 H        21        0    0.0000
    301 H         125.4261  122.7383   98.1615 H        21        0    0.0000
    302 C         128.4875  126.6718   96.5829 C.3      22        0    0.0000
    303 C         127.0096  126.2841   96.5807 C.3      22        0    0.0000
    304 C         126.9128  124.9112   97.2684 C.3      22        0    0.0000
    305 C         126.0676  123.9145   96.4645 C.3      22        0    0.0000
    306 C         128.3711  124.4729   97.4736 C.3      22        0    0.0000
    307 C         129.1570  125.7806   97.6322 C.3      22        0    0.0000
    308 C         129.0765  126.3980   99.0403 C.3      22        0    0.0000
    309 H         128.9139  126.4505   95.5960 H        22        0    0.0000
    310 H         128.6322  127.7413   96.7650 H        22        0    0.0000
    311 H         126.6182  126.2770   95.5575 H        22        0    0.0000
    312 H         126.4240  127.0198   97.1444 H        22        0    0.0000
    313 H         126.4496  125.0600   98.2541 H        22        0    0.0000
    314 H         126.7054  123.1323   96.0367 H        22        0    0.0000
    315 H         125.5974  124.4355   95.6218 H        22        0    0.0000
    316 H         128.4806  123.7992   98.3290 H        22        0    0.0000
    317 H         128.7369  123.9397   96.5864 H        22        0    0.0000
    318 H         130.2101  125.6236   97.3661 H        22        0    0.0000
    319 H         128.1357  126.1356   99.5361 H        22        0    0.0000
    320 H         129.0917  127.4915   98.9563 H        22        0    0.0000
    321 C         132.0255  129.0333  101.0784 C.3      23        0    0.0000
    322 C         131.0037  128.4365  100.1075 C.3      23        0    0.0000
    323 C         131.4266  126.9763   99.8662 C.3      23        0    0.0000
    324 C         130.2729  125.9682   99.9357 C.3      23        0    0.0000
    325 C         132.4995  126.7091  100.9266 C.3      23        0    0.0000
    326 C         133.2063  128.0567  101.1084 C.3      23        0    0.0000
    327 C         134.2452  128.3289  100.0041 C.3      23        0    0.0000
    328 H         132.3038  130.0542  100.8002 H        23        0    0.0000
    329 H         131.5751  129.0838  102.0781 H        23        0    0.0000
    330 H         129.9946  128.5240  100.5249 H        23        0    0.0000
    331 H         131.0111  128.9875   99.1598 H        23        0    0.0000
    332 H         131.9017  126.9138   98.8767 H        23        0    0.0000
    333 H         130.6267  124.9874   99.5964 H        23        0    0.0000
    334 H         129.9353  125.8434  100.9711 H        23        0    0.0000
    335 H         133.1825  125.9079  100.6262 H        23        0    0.0000
    336 H         132.0337  126.4096  101.8744 H        23        0    0.0000
    337 H         133.6992  128.0844  102.0885 H        23        0    0.0000
    338 H         134.3363  129.4019   99.8022 H        23        0    0.0000
    339 H         133.9168  127.8560   99.0709 H        23        0    0.0000
    340 C         134.3737  124.8479  102.4669 C.3      24        0    0.0000
    341 C         134.3002  125.7039  101.2102 C.3      24        0    0.0000
    342 C         135.5979  126.5162  101.2738 C.3      24        0    0.0000
    343 C         135.6436  127.7538  100.3723 C.3      24        0    0.0000
    344 C         135.8402  126.7772  102.7733 C.3      24        0    0.0000
    345 C         134.8784  125.8354  103.5241 C.3      24        0    0.0000
    346 C         135.4377  125.2020  104.8016 C.3      24        0    0.0000
    347 H         133.3994  124.4250  102.7310 H        24        0    0.0000
    348 H         135.0729  124.0192  102.3097 H        24        0    0.0000
    349 H         134.2406  125.0944  100.3032 H        24        0    0.0000
    350 H         133.4114  126.3433  101.2495 H        24        0    0.0000
    351 H         136.4068  125.8521  100.9339 H        24        0    0.0000
    352 H         136.2270  128.5377  100.8698 H        24        0    0.0000
    353 H         136.1764  127.5038   99.4472 H        24        0    0.0000
    354 H         135.6379  127.8139  103.0632 H        24        0    0.0000
    355 H         136.8926  126.5895  103.0121 H        24        0    0.0000
    356 H         134.0144  126.4446  103.8298 H        24        0    0.0000
    357 H         134.6215  125.0671  105.5212 H        24        0    0.0000
    358 H         135.8201  124.2013  104.5678 H        24        0    0.0000
    359 C         138.2540  128.4059  103.0843 C.3      25        0    0.0000
    360 C         137.0110  127.7709  103.6887 C.3      25        0    0.0000
    361 C         137.5780  126.5843  104.4706 C.3      25        0    0.0000
    362 C         136.5728  126.0255  105.4808 C.3      25        0    0.0000
    363 C         138.8731  127.1399  105.0908 C.3      25        0    0.0000
    364 C         139.2754  128.3533  104.2275 C.3      25        0    0.0000
    365 C         140.7463  128.3942  103.7943 C.3      25        0    0.0000
    366 H         138.0674  129.4312  102.7496 H        25        0    0.0000
    367 H         138.5768  127.8232  102.2148 H        25        0    0.0000
    368 H         136.5082  128.4811  104.3564 H        25        0    0.0000
    369 H         136.2966  127.4575  102.9212 H        25        0    0.0000
    370 H         137.8516  125.7977  103.7523 H        25        0    0.0000
    371 H         137.0864  125.3947  106.2160 H        25        0    0.0000
    372 H         136.1209  126.8544  106.0386 H        25        0    0.0000
    373 H         138.7071  127.4750  106.1222 H        25        0    0.0000
    374 H         139.6462  126.3653  105.1299 H        25        0    0.0000
    375 H         139.1103  129.2475  104.8471 H        25        0    0.0000
    376 H         141.2511  129.2150  104.3174 H        25        0    0.0000
    377 H         140.7955  128.6266  102.7238 H        25        0    0.0000
    378 C         143.2194  125.9060  100.9637 C.3      26        0    0.0000
    379 C         142.2296  126.8995  101.5770 C.3      26        0    0.0000
    380 C         141.6026  126.2001  102.7964 C.3      26        0    0.0000
    381 C         141.5294  127.0751  104.0539 C.3      26        0    0.0000
    382 C         142.4640  124.9504  103.0047 C.3      26        0    0.0000
    383 C         142.9032  124.5451  101.5936 C.3      26        0    0.0000
    384 C         141.8085  123.7680  100.8380 C.3      26        0    0.0000
    385 H         143.1740  125.9079   99.8705 H        26        0    0.0000
    386 H         144.2380  126.2039  101.2437 H        26        0    0.0000
    387 H         142.7458  127.8297  101.8386 H        26        0    0.0000
    388 H         141.4478  127.1556  100.8523 H        26        0    0.0000
    389 H         140.5887  125.8742  102.5236 H        26        0    0.0000
    390 H         141.0226  126.5210  104.8529 H        26        0    0.0000
    391 H         142.5368  127.3073  104.4180 H        26        0    0.0000
    392 H         141.9167  124.1570  103.5240 H        26        0    0.0000
    393 H         143.3487  125.1923  103.6078 H        26        0    0.0000
    394 H         143.8115  123.9320  101.6528 H        26        0    0.0000
    395 H         142.0437  123.6899   99.7707 H        26        0    0.0000
    396 H         140.8582  124.3094  100.9160 H        26        0    0.0000
    397 C         141.6028  122.3417  101.4255 C.3      27        0    0.0000
    398 C         140.5533  122.2732  102.5441 C.3      27        0    0.0000
    399 H         141.2617  121.7048  100.5992 H        27        0    0.0000
    400 H         142.5659  121.9361  101.7568 H        27        0    0.0000
    401 H         139.9413  123.1823  102.5731 H        27        0    0.0000
    402 H         139.8712  121.4428  102.3207 H        27        0    0.0000
    403 C         144.1949  119.8506  104.6778 C.3      28        0    0.0000
    404 C         143.5762  121.0748  104.0206 C.3      28        0    0.0000
    405 C         142.0731  120.7691  104.0361 C.3      28        0    0.0000
    406 C         141.1543  121.9953  103.9655 C.3      28        0    0.0000
    407 C         141.8485  119.8427  105.2489 C.3      28        0    0.0000
    408 C         143.2427  119.5686  105.8418 C.3      28        0    0.0000
    409 C         143.4302  118.1607  106.4127 C.3      28        0    0.0000
    410 H         144.2169  119.0111  103.9722 H        28        0    0.0000
    411 H         145.2179  120.0405  105.0166 H        28        0    0.0000
    412 H         143.8222  121.9679  104.6052 H        28        0    0.0000
    413 H         143.9520  121.2265  103.0038 H        28        0    0.0000
    414 H         141.8581  120.1692  103.1392 H        28        0    0.0000
    415 H         140.3292  121.8630  104.6755 H        28        0    0.0000
    416 H         141.7122  122.8803  104.2938 H        28        0    0.0000
    417 H         141.3737  118.9148  104.9061 H        28        0    0.0000
    418 H         141.1857  120.2772  106.0045 H        28        0    0.0000
    419 H         143.4326  120.3119  106.6298 H        28        0    0.0000
    420 H         144.1972  118.1693  107.1961 H        28        0    0.0000
    421 H         142.4975  117.8358  106.8891 H        28        0    0.0000
    422 C         143.3779  113.7322  106.9819 C.3      29        0    0.0000
    423 C         142.8608  114.8369  106.0710 C.3      29        0    0.0000
    424 C         144.0981  115.7167  105.8646 C.3      29        0    0.0000
    425 C         143.8221  117.1229  105.3237 C.3      29        0    0.0000
    426 C         144.8657  115.6572  107.1997 C.3      29        0    0.0000
    427 C         144.2344  114.4980  107.9955 C.3      29        0    0.0000
    428 C         145.2133  113.6441  108.8072 C.3      29        0    0.0000
    429 H         142.5622  113.1842  107.4635 H        29        0    0.0000
    430 H         143.9695  113.0182  106.3984 H        29        0    0.0000
    431 H         142.4754  114.4409  105.1263 H        29        0    0.0000
    432 H         142.0490  115.3778  106.5696 H        29        0    0.0000
    433 H         144.7271  115.2119  105.1158 H        29        0    0.0000
    434 H         144.7127  117.4849  104.7964 H        29        0    0.0000
    435 H         143.0166  117.0698  104.5817 H        29        0    0.0000
    436 H         144.7865  116.5840  107.7780 H        29        0    0.0000
    437 H         145.9325  115.5066  107.0022 H        29        0    0.0000
    438 H         143.5415  114.9525  108.7197 H        29        0    0.0000
    439 H         146.2042  113.6941  108.3404 H        29        0    0.0000
    440 H         145.3160  114.0731  109.8110 H        29        0    0.0000
    441 C         147.3716  109.7341  110.2789 C.3      30        0    0.0000
    442 C         146.2433  110.0948  109.3248 C.3      30        0    0.0000
    443 C         145.6797  111.3815  109.9315 C.3      30        0    0.0000
    444 C         144.7985  112.1482  108.9423 C.3      30        0    0.0000
    445 C         146.9321  112.1431  110.4026 C.3      30        0    0.0000
    446 C         148.0407  111.0835  110.5695 C.3      30        0    0.0000
    447 C         148.8271  111.1551  111.8846 C.3      30        0    0.0000
    448 H         148.0703  109.0189  109.8335 H        30        0    0.0000
    449 H         146.9547  109.2765  111.1826 H        30        0    0.0000
    450 H         146.6398  110.2726  108.3177 H        30        0    0.0000
    451 H         145.4909  109.3027  109.2620 H        30        0    0.0000
    452 H         145.0875  111.1132  110.8185 H        30        0    0.0000
    453 H         144.8358  111.6725  107.9551 H        30        0    0.0000
    454 H         143.7547  112.1011  109.2750 H        30        0    0.0000
    455 H         147.2526  112.8802  109.6558 H        30        0    0.0000
    456 H         146.7242  112.6962  111.3246 H        30        0    0.0000
    457 H         148.7684  111.2613  109.7636 H        30        0    0.0000
    458 H         148.1919  111.6033  112.6578 H        30        0    0.0000
    459 H         149.6822  111.8285  111.7514 H        30        0    0.0000
    460 C         151.5447  108.1294  109.7880 C.3      31        0    0.0000
    461 C         150.8802  109.3795  110.3441 C.3      31        0    0.0000
    462 C         149.8057  108.8247  111.2879 C.3      31        0    0.0000
    463 C         149.3497  109.7820  112.3963 C.3      31        0    0.0000
    464 C         150.3385  107.4597  111.7700 C.3      31        0    0.0000
    465 C         151.6620  107.2274  111.0184 C.3      31        0    0.0000
    466 C         151.9367  105.7696  110.6412 C.3      31        0    0.0000
    467 H         150.9093  107.6711  109.0204 H        31        0    0.0000
    468 H         152.5191  108.3479  109.3406 H        31        0    0.0000
    469 H         151.6238  109.9841  110.8746 H        31        0    0.0000
    470 H         150.4483  109.9993  109.5521 H        31        0    0.0000
    471 H         148.9166  108.6154  110.6745 H        31        0    0.0000
    472 H         148.5558  109.2994  112.9788 H        31        0    0.0000
    473 H         150.1843  109.9550  113.0860 H        31        0    0.0000
    474 H         149.6025  106.6833  111.5267 H        31        0    0.0000
    475 H         150.4965  107.4183  112.8528 H        31        0    0.0000
    476 H         152.4832  107.6049  111.6450 H        31        0    0.0000
    477 H         151.5243  105.0976  111.4032 H        31        0    0.0000
    478 H         151.4210  105.5349  109.7024 H        31        0    0.0000
    479 C         153.4528  105.4747  110.4649 C.3      32        0    0.0000
    480 C         153.8504  104.0301  110.7999 C.3      32        0    0.0000
    481 H         153.6903  105.6571  109.4090 H        32        0    0.0000
    482 H         154.0394  106.1951  111.0470 H        32        0    0.0000
    483 H         153.1558  103.5819  111.5200 H        32        0    0.0000
    484 H         153.7768  103.4348  109.8807 H        32        0    0.0000
    485 C         155.8829  105.2182  114.6916 C.3      33        0    0.0000
    486 C         154.8495  104.8983  113.6125 C.3      33        0    0.0000
    487 C         155.3811  103.6783  112.8406 C.3      33        0    0.0000
    488 C         155.3217  103.8787  111.3205 C.3      33        0    0.0000
    489 C         156.7997  103.4570  113.3879 C.3      33        0    0.0000
    490 C         156.7470  103.9628  114.8352 C.3      33        0    0.0000
    491 C         156.1363  102.9606  115.8317 C.3      33        0    0.0000
    492 H         156.5096  106.0507  114.3469 H        33        0    0.0000
    493 H         155.4146  105.5330  115.6295 H        33        0    0.0000
    494 H         154.6850  105.7706  112.9706 H        33        0    0.0000
    495 H         153.8855  104.6507  114.0726 H        33        0    0.0000
    496 H         154.7617  102.8117  113.1119 H        33        0    0.0000
    497 H         155.8108  103.0429  110.8068 H        33        0    0.0000
    498 H         155.8789  104.7845  111.0527 H        33        0    0.0000
    499 H         157.1113  102.4109  113.3094 H        33        0    0.0000
    500 H         157.5238  104.0588  112.8235 H        33        0    0.0000
    501 H         157.7524  104.2430  115.1746 H        33        0    0.0000
    502 H         155.4901  102.2376  115.3225 H        33        0    0.0000
    503 H         155.5009  103.5014  116.5436 H        33        0    0.0000
    504 C         158.3566  104.4699  119.4369 C.3      34        0    0.0000
    505 C         157.2917  103.9481  118.4845 C.3      34        0    0.0000
    506 C         158.1053  103.1450  117.4675 C.3      34        0    0.0000
    507 C         157.2270  102.2029  116.6404 C.3      34        0    0.0000
    508 C         159.1730  102.4423  118.3259 C.3      34        0    0.0000
    509 C         159.2907  103.2677  119.6238 C.3      34        0    0.0000
    510 C         160.7214  103.6108  120.0580 C.3      34        0    0.0000
    511 H         157.9269  104.8052  120.3861 H        34        0    0.0000
    512 H         158.8687  105.3241  118.9809 H        34        0    0.0000
    513 H         156.5840  103.3049  119.0217 H        34        0    0.0000
    514 H         156.7284  104.7603  118.0150 H        34        0    0.0000
    515 H         158.6150  103.8532  116.7981 H        34        0    0.0000
    516 H         157.8460  101.6168  115.9508 H        34        0    0.0000
    517 H         156.7353  101.4860  117.3087 H        34        0    0.0000
    518 H         158.8678  101.4195  118.5799 H        34        0    0.0000
    519 H         160.1186  102.3642  117.7792 H        34        0    0.0000
    520 H         158.8629  102.6505  120.4278 H        34        0    0.0000
    521 H         160.6841  104.3793  120.8391 H        34        0    0.0000
    522 H         161.2548  104.0527  119.2079 H        34        0    0.0000
    523 C         161.1964   99.0330  118.9153 C.3      35        0    0.0000
    524 C         161.2165  100.5624  118.8494 C.3      35        0    0.0000
    525 C         160.8737  101.0587  120.2602 C.3      35        0    0.0000
    526 C         161.5415  102.3980  120.5843 C.3      35        0    0.0000
    527 C         161.3112   99.8941  121.1549 C.3      35        0    0.0000
    528 C         160.8424   98.6689  120.3631 C.3      35        0    0.0000
    529 C         161.4751   97.3453  120.8018 C.3      35        0    0.0000
    530 H         160.4673   98.6118  118.2148 H        35        0    0.0000
    531 H         162.1814   98.6425  118.6327 H        35        0    0.0000
    532 H         160.4978  100.9408  118.1146 H        35        0    0.0000
    533 H         162.2110  100.9012  118.5354 H        35        0    0.0000
    534 H         159.7812  101.1638  120.3304 H        35        0    0.0000
    535 H         162.5377  102.4258  120.1268 H        35        0    0.0000
    536 H         161.6876  102.4982  121.6662 H        35        0    0.0000
    537 H         160.8477   99.9429  122.1454 H        35        0    0.0000
    538 H         162.4008   99.8854  121.2836 H        35        0    0.0000
    539 H         159.7476   98.5989  120.4408 H        35        0    0.0000
    540 H         161.8288   96.7851  119.9284 H        35        0    0.0000
    541 H         160.7139   96.7241  121.2888 H        35        0    0.0000
    542 C         164.0558  101.0334  121.1927 C.3      36        0    0.0000
    543 C         163.2759   99.8197  120.7068 C.3      36        0    0.0000
    544 C         163.0563   99.0171  121.9934 C.3      36        0    0.0000
    545 C         162.6520   97.5532  121.7941 C.3      36        0    0.0000
    546 C         164.3257   99.2470  122.8367 C.3      36        0    0.0000
    547 C         165.0665  100.4218  122.1685 C.3      36        0    0.0000
    548 C         165.7362  101.4110  123.1272 C.3      36        0    0.0000
    549 H         164.5468  101.5605  120.3689 H        36        0    0.0000
    550 H         163.3766  101.7352  121.6890 H        36        0    0.0000
    551 H         162.3311  100.1038  120.2330 H        36        0    0.0000
    552 H         163.8719   99.2665  119.9726 H        36        0    0.0000
    553 H         162.2271   99.4995  122.5326 H        36        0    0.0000
    554 H         163.5199   96.9878  121.4345 H        36        0    0.0000
    555 H         162.3753   97.1226  122.7637 H        36        0    0.0000
    556 H         164.9815   98.3702  122.8665 H        36        0    0.0000
    557 H         164.0431   99.4566  123.8739 H        36        0    0.0000
    558 H         165.8716   99.9826  121.5602 H        36        0    0.0000
    559 H         165.7632  102.4017  122.6582 H        36        0    0.0000
    560 H         165.1218  101.5067  124.0303 H        36        0    0.0000
    561 C         170.0757  102.1939  121.5407 C.3      37        0    0.0000
    562 C         168.5669  102.2896  121.7795 C.3      37        0    0.0000
    563 C         168.1220  100.9254  122.3365 C.3      37        0    0.0000
    564 C         167.1841  101.0161  123.5465 C.3      37        0    0.0000
    565 C         169.4317  100.2021  122.6664 C.3      37        0    0.0000
    566 C         170.4253  100.7035  121.6129 C.3      37        0    0.0000
    567 C         170.2663   99.9782  120.2632 C.3      37        0    0.0000
    568 H         170.3706  102.6716  120.6015 H        37        0    0.0000
    569 H         170.5956  102.7248  122.3485 H        37        0    0.0000
    570 H         168.3470  103.1194  122.4602 H        37        0    0.0000
    571 H         168.0440  102.4956  120.8382 H        37        0    0.0000
    572 H         167.6197  100.3711  121.5308 H        37        0    0.0000
    573 H         167.1471  100.0432  124.0510 H        37        0    0.0000
    574 H         167.5690  101.7379  124.2760 H        37        0    0.0000
    575 H         169.3132   99.1137  122.6552 H        37        0    0.0000
    576 H         169.7840  100.4869  123.6663 H        37        0    0.0000
    577 H         171.4505  100.5696  121.9809 H        37        0    0.0000
    578 H         170.8262  100.4882  119.4715 H        37        0    0.0000
    579 H         169.2110   99.9905  119.9656 H        37        0    0.0000
    580 C         171.6385   96.1867  123.2100 C.3      38        0    0.0000
    581 C         170.7204   96.5418  122.0505 C.3      38        0    0.0000
    582 C         171.0545   98.0116  121.7657 C.3      38        0    0.0000
    583 C         170.7284   98.4945  120.3468 C.3      38        0    0.0000
    584 C         172.5202   98.1994  122.2084 C.3      38        0    0.0000
    585 C         172.9580   96.8558  122.8196 C.3      38        0    0.0000
    586 C         173.9180   96.9747  124.0060 C.3      38        0    0.0000
    587 H         171.2459   96.6020  124.1462 H        38        0    0.0000
    588 H         171.7437   95.1044  123.3327 H        38        0    0.0000
    589 H         170.9432   95.8943  121.1956 H        38        0    0.0000
    590 H         169.6654   96.4049  122.3080 H        38        0    0.0000
    591 H         170.4407   98.6185  122.4479 H        38        0    0.0000
    592 H         171.6156   98.3673  119.7150 H        38        0    0.0000
    593 H         169.9459   97.8549  119.9217 H        38        0    0.0000
    594 H         172.5685   99.0070  122.9495 H        38        0    0.0000
    595 H         173.1843   98.4844  121.3856 H        38        0    0.0000
    596 H         173.4274   96.2550  122.0270 H        38        0    0.0000
    597 H         174.9379   97.1624  123.6499 H        38        0    0.0000
    598 H         173.6337   97.8399  124.6167 H        38        0    0.0000
    599 C         173.6653   92.0040  124.0851 C.3      39        0    0.0000
    600 C         173.2803   93.1958  124.9504 C.3      39        0    0.0000
    601 C         173.7887   94.3889  124.1344 C.3      39        0    0.0000
    602 C         173.9148   95.7066  124.9051 C.3      39        0    0.0000
    603 C         175.0780   93.8930  123.4507 C.3      39        0    0.0000
    604 C         175.0814   92.3613  123.6217 C.3      39        0    0.0000
    605 C         175.6012   91.5640  122.4215 C.3      39        0    0.0000
    606 H         173.6413   91.0656  124.6477 H        39        0    0.0000
    607 H         172.9670   91.9153  123.2456 H        39        0    0.0000
    608 H         172.2005   93.2449  125.1216 H        39        0    0.0000
    609 H         173.7763   93.1214  125.9245 H        39        0    0.0000
    610 H         173.0541   94.5641  123.3340 H        39        0    0.0000
    611 H         173.0871   95.7838  125.6200 H        39        0    0.0000
    612 H         174.8394   95.6903  125.4942 H        39        0    0.0000
    613 H         175.9855   94.3132  123.8975 H        39        0    0.0000
    614 H         175.0783   94.2041  122.4005 H        39        0    0.0000
    615 H         175.7573   92.1386  124.4611 H        39        0    0.0000
    616 H         174.7657   91.3511  121.7442 H        39        0    0.0000
    617 H         176.3116   92.1828  121.8607 H        39        0    0.0000
    618 C         179.4634   91.1561  124.4892 C.3      40        0    0.0000
    619 C         178.3225   91.6135  123.5772 C.3      40        0    0.0000
    620 C         177.8224   90.3607  122.8358 C.3      40        0    0.0000
    621 C         176.2956   90.2207  122.7974 C.3      40        0    0.0000
    622 C         178.4974   89.1925  123.5616 C.3      40        0    0.0000
    623 C         179.8503   89.7506  124.0161 C.3      40        0    0.0000
    624 C         180.8931   89.7592  122.8823 C.3      40        0    0.0000
    625 H         180.2953   91.8668  124.4886 H        40        0    0.0000
    626 H         179.0903   91.0986  125.5198 H        40        0    0.0000
    627 H         177.5393   92.0978  124.1708 H        40        0    0.0000
    628 H         178.6853   92.3536  122.8543 H        40        0    0.0000
    629 H         178.2083   90.3919  121.8068 H        40        0    0.0000
    630 H         176.0189   89.4654  122.0522 H        40        0    0.0000
    631 H         175.9192   89.8662  123.7639 H        40        0    0.0000
    632 H         178.5951   88.3117  122.9187 H        40        0    0.0000
    633 H         177.9094   88.8978  124.4405 H        40        0    0.0000
    634 H         180.2298   89.1562  124.8569 H        40        0    0.0000
    635 H         181.4821   90.6830  122.8932 H        40        0    0.0000
    636 H         180.3789   89.7207  121.9146 H        40        0    0.0000
    637 C         182.0596   88.5906  126.6750 C.3      41        0    0.0000
    638 C         182.0438   89.4178  125.3872 C.3      41        0    0.0000
    639 C         182.6424   88.5266  124.2842 C.3      41        0    0.0000
    640 C         181.8518   88.5364  122.9701 C.3      41        0    0.0000
    641 C         182.7091   87.1317  124.9145 C.3      41        0    0.0000
    642 C         182.9751   87.3924  126.4010 C.3      41        0    0.0000
    643 C         184.4595   87.6863  126.6895 C.3      41        0    0.0000
    644 H         182.3621   89.1888  127.5397 H        41        0    0.0000
    645 H         181.0429   88.2282  126.8744 H        41        0    0.0000
    646 H         181.0220   89.7436  125.1634 H        41        0    0.0000
    647 H         182.6530   90.3214  125.5068 H        41        0    0.0000
    648 H         183.6709   88.8626  124.0895 H        41        0    0.0000
    649 H         182.5506   88.5808  122.1262 H        41        0    0.0000
    650 H         181.2798   87.6079  122.8604 H        41        0    0.0000
    651 H         183.4780   86.5073  124.4481 H        41        0    0.0000
    652 H         181.7477   86.6145  124.8001 H        41        0    0.0000
    653 H         182.6535   86.5242  126.9901 H        41        0    0.0000
    654 H         184.6469   87.7569  127.7667 H        41        0    0.0000
    655 H         184.7296   88.6561  126.2550 H        41        0    0.0000
    656 C         183.6695   83.3626  126.0885 C.3      42        0    0.0000
    657 C         183.5186   84.8770  126.2245 C.3      42        0    0.0000
    658 C         184.6066   85.5098  125.3397 C.3      42        0    0.0000
    659 C         185.3928   86.6035  126.0745 C.3      42        0    0.0000
    660 C         185.4678   84.3264  124.8723 C.3      42        0    0.0000
    661 C         184.5057   83.1325  124.8270 C.3      42        0    0.0000
    662 C         183.6284   83.0770  123.5631 C.3      42        0    0.0000
    663 H         184.2173   82.9810  126.9596 H        42        0    0.0000
    664 H         182.7012   82.8528  126.0669 H        42        0    0.0000
    665 H         183.5965   85.1757  127.2756 H        42        0    0.0000
    666 H         182.5292   85.1923  125.8727 H        42        0    0.0000
    667 H         184.1129   85.9519  124.4628 H        42        0    0.0000
    668 H         186.1110   87.0777  125.3956 H        42        0    0.0000
    669 H         185.9758   86.1482  126.8842 H        42        0    0.0000
    670 H         185.9514   84.5252  123.9109 H        42        0    0.0000
    671 H         186.2610   84.1206  125.6028 H        42        0    0.0000
    672 H         185.0647   82.1926  124.9206 H        42        0    0.0000
    673 H         183.5339   84.0656  123.1012 H        42        0    0.0000
    674 H         182.6149   82.7630  123.8409 H        42        0    0.0000
    675 C         184.1750   82.0650  122.5167 C.3      43        0    0.0000
    676 C         183.1423   81.0276  122.0534 C.3      43        0    0.0000
    677 H         184.4855   82.6506  121.6419 H        43        0    0.0000
    678 H         185.0784   81.5818  122.9070 H        43        0    0.0000
    679 H         182.1185   81.3936  122.1941 H        43        0    0.0000
    680 H         183.2749   80.8734  120.9749 H        43        0    0.0000
    681 C         184.6932   80.8987  126.0322 C.3      44        0    0.0000
    682 C         183.7375   81.0430  124.8561 C.3      44        0    0.0000
    683 C         183.8316   79.6765  124.1696 C.3      44        0    0.0000
    684 C         183.2999   79.6239  122.7341 C.3      44        0    0.0000
    685 C         185.2954   79.2303  124.3528 C.3      44        0    0.0000
    686 C         185.8941   80.1784  125.4102 C.3      44        0    0.0000
    687 C         186.8603   79.5304  126.4066 C.3      44        0    0.0000
    688 H         184.9699   81.8691  126.4556 H        44        0    0.0000
    689 H         184.2205   80.3050  126.8224 H        44        0    0.0000
    690 H         182.7180   81.2695  125.1833 H        44        0    0.0000
    691 H         184.0740   81.8561  124.2036 H        44        0    0.0000
    692 H         183.2135   78.9810  124.7574 H        44        0    0.0000
    693 H         183.9744   79.0107  122.1247 H        44        0    0.0000
    694 H         182.3263   79.1196  122.7307 H        44        0    0.0000
    695 H         185.8797   79.2972  123.4286 H        44        0    0.0000
    696 H         185.3221   78.1792  124.6596 H        44        0    0.0000
    697 H         186.4726   80.9375  124.8625 H        44        0    0.0000
    698 H         187.8871   79.8115  126.1440 H        44        0    0.0000
    699 H         186.6688   79.9361  127.4071 H        44        0    0.0000
    700 C         190.1835   76.5314  125.7844 C.3      45        0    0.0000
    701 C         189.2676   77.7278  126.0555 C.3      45        0    0.0000
    702 C         187.8565   77.2930  125.6387 C.3      45        0    0.0000
    703 C         186.7675   77.9763  126.4704 C.3      45        0    0.0000
    704 C         187.9058   75.7680  125.7805 C.3      45        0    0.0000
    705 C         189.2876   75.4235  125.2150 C.3      45        0    0.0000
    706 C         189.7933   74.0237  125.5746 C.3      45        0    0.0000
    707 H         190.9827   76.7903  125.0815 H        45        0    0.0000
    708 H         190.6625   76.2189  126.7201 H        45        0    0.0000
    709 H         189.5879   78.6122  125.4943 H        45        0    0.0000
    710 H         189.3099   77.9859  127.1205 H        45        0    0.0000
    711 H         187.7210   77.5422  124.5761 H        45        0    0.0000
    712 H         186.8622   77.6640  127.5173 H        45        0    0.0000
    713 H         185.7746   77.6559  126.1337 H        45        0    0.0000
    714 H         187.1016   75.2791  125.2215 H        45        0    0.0000
    715 H         187.8262   75.4686  126.8331 H        45        0    0.0000
    716 H         189.2570   75.5358  124.1214 H        45        0    0.0000
    717 H         189.3334   73.2736  124.9206 H        45        0    0.0000
    718 H         189.4869   73.7803  126.5990 H        45        0    0.0000
    719 C         192.7150   70.5541  126.5705 C.3      46        0    0.0000
    720 C         191.5813   71.3812  125.9838 C.3      46        0    0.0000
    721 C         191.9505   72.8194  126.3686 C.3      46        0    0.0000
    722 C         191.3398   73.9121  125.4819 C.3      46        0    0.0000
    723 C         193.4889   72.8398  126.4792 C.3      46        0    0.0000
    724 C         193.9538   71.3908  126.2446 C.3      46        0    0.0000
    725 C         195.1704   70.9670  127.0712 C.3      46        0    0.0000
    726 H         192.5845   70.4455  127.6541 H        46        0    0.0000
    727 H         192.7633   69.5539  126.1292 H        46        0    0.0000
    728 H         191.5484   71.2394  124.8982 H        46        0    0.0000
    729 H         190.6083   71.0864  126.3894 H        46        0    0.0000
    730 H         191.5608   72.9906  127.3832 H        46        0    0.0000
    731 H         191.7784   74.8790  125.7560 H        46        0    0.0000
    732 H         191.6199   73.7248  124.4385 H        46        0    0.0000
    733 H         193.7701   73.1895  127.4804 H        46        0    0.0000
    734 H         193.9623   73.5185  125.7620 H        46        0    0.0000
    735 H         194.1781   71.2715  125.1745 H        46        0    0.0000
    736 H         196.0560   70.8908  126.4293 H        46        0    0.0000
    737 H         195.3884   71.7402  127.8175 H        46        0    0.0000
    738 C         198.1565   67.6259  127.3360 C.3      47        0    0.0000
    739 C         197.2379   68.7694  126.9283 C.3      47        0    0.0000
    740 C         196.2399   68.8363  128.0891 C.3      47        0    0.0000
    741 C         194.9513   69.6137  127.8041 C.3      47        0    0.0000
    742 C         196.0483   67.3763  128.5442 C.3      47        0    0.0000
    743 C         197.1776   66.5743  127.8682 C.3      47        0    0.0000
    744 C         197.8027   65.4664  128.7215 C.3      47        0    0.0000
    745 H         198.7430   67.2517  126.4912 H        47        0    0.0000
    746 H         198.8535   67.9687  128.1086 H        47        0    0.0000
    747 H         197.7854   69.7085  126.8020 H        47        0    0.0000
    748 H         196.7488   68.5301  125.9776 H        47        0    0.0000
    749 H         196.7452   69.3607  128.9142 H        47        0    0.0000
    750 H         194.2830   68.9896  127.1990 H        47        0    0.0000
    751 H         194.4319   69.8058  128.7505 H        47        0    0.0000
    752 H         195.0781   66.9622  128.2491 H        47        0    0.0000
    753 H         196.0860   67.3258  129.6377 H        47        0    0.0000
    754 H         196.7328   66.0799  126.9914 H        47        0    0.0000
    755 H         197.3245   65.4614  129.7081 H        47        0    0.0000
    756 H         197.5865   64.4948  128.2617 H        47        0    0.0000
    757 C         200.1018   66.0545  125.2292 C.3      48        0    0.0000
    758 C         199.3789   65.3053  126.3381 C.3      48        0    0.0000
    759 C         200.1360   65.7226  127.6053 C.3      48        0    0.0000
    760 C         199.3436   65.5978  128.9128 C.3      48        0    0.0000
    761 C         200.7058   67.1249  127.3080 C.3      48        0    0.0000
    762 C         200.3375   67.4350  125.8455 C.3      48        0    0.0000
    763 C         201.3896   68.2382  125.0768 C.3      48        0    0.0000
    764 H         201.0514   65.5592  124.9927 H        48        0    0.0000
    765 H         199.5050   66.1066  124.3134 H        48        0    0.0000
    766 H         198.3283   65.6141  126.3640 H        48        0    0.0000
    767 H         199.4056   64.2220  126.1840 H        48        0    0.0000
    768 H         200.9991   65.0471  127.7008 H        48        0    0.0000
    769 H         199.7045   64.7220  129.4653 H        48        0    0.0000
    770 H         199.5496   66.4723  129.5414 H        48        0    0.0000
    771 H         201.7939   67.1048  127.4474 H        48        0    0.0000
    772 H         200.3149   67.8983  127.9774 H        48        0    0.0000
    773 H         199.3832   67.9817  125.8407 H        48        0    0.0000
    774 H         202.3550   67.7189  125.1024 H        48        0    0.0000
    775 H         201.0959   68.3044  124.0225 H        48        0    0.0000
    776 H         201.5143   69.2474  125.4693 H        48        0    0.0000
    777 H         120.8636  120.6854   57.2418 H         0        0    0.0000
@<TRIPOS>BOND
     1     1     2      1
     2     1     6      1
     3     1     8      1
     4     1     9      1
     5     2     3      1
     6     2    10      1
     7     2    11      1
     8     3     4      1
     9     3     5      1
    10     3    12      1
    11     4    13      1
    12     4    14      1
    13     4   777      H
    14     5     6      1
    15     5    15      1
    16     5    16      1
    17     6     7      1
    18     6    17      1
    19     7    18      1
    20     7    19      1
    21     7    23      1
    22    20    21      1
    23    20    25      1
    24    20    27      1
    25    20    28      1
    26    21    22      1
    27    21    29      1
    28    21    30      1
    29    22    23      1
    30    22    24      1
    31    22    31      1
    32    23    32      1
    33    23    33      1
    34    24    25      1
    35    24    34      1
    36    24    35      1
    37    25    26      1
    38    25    36      1
    39    26    37      1
    40    26    38      1
    41    26    39      1
    42    39    40      1
    43    39    41      1
    44    39    42      1
    45    40    43      1
    46    40    44      1
    47    40    48      1
    48    45    46      1
    49    45    50      1
    50    45    52      1
    51    45    53      1
    52    46    47      1
    53    46    54      1
    54    46    55      1
    55    47    48      1
    56    47    49      1
    57    47    56      1
    58    48    57      1
    59    48    58      1
    60    49    50      1
    61    49    59      1
    62    49    60      1
    63    50    51      1
    64    50    61      1
    65    51    62      1
    66    51    63      1
    67    51    64      1
    68    64    65      1
    69    64    66      1
    70    64    67      1
    71    65    68      1
    72    65    69      1
    73    65    73      1
    74    70    71      1
    75    70    75      1
    76    70    77      1
    77    70    78      1
    78    71    72      1
    79    71    79      1
    80    71    80      1
    81    72    73      1
    82    72    74      1
    83    72    81      1
    84    73    82      1
    85    73    83      1
    86    74    75      1
    87    74    84      1
    88    74    85      1
    89    75    76      1
    90    75    86      1
    91    76    87      1
    92    76    88      1
    93    76    92      1
    94    89    90      1
    95    89    94      1
    96    89    96      1
    97    89    97      1
    98    90    91      1
    99    90    98      1
   100    90    99      1
   101    91    92      1
   102    91    93      1
   103    91   100      1
   104    92   101      1
   105    92   102      1
   106    93    94      1
   107    93   103      1
   108    93   104      1
   109    94    95      1
   110    94   105      1
   111    95   106      1
   112    95   107      1
   113    95   108      1
   114   108   109      1
   115   108   110      1
   116   108   111      1
   117   109   112      1
   118   109   113      1
   119   109   114      1
   120   114   115      1
   121   114   116      1
   122   114   117      1
   123   115   118      1
   124   115   119      1
   125   115   120      1
   126   120   121      1
   127   120   122      1
   128   120   123      1
   129   121   124      1
   130   121   125      1
   131   121   126      1
   132   126   127      1
   133   126   128      1
   134   126   129      1
   135   127   130      1
   136   127   131      1
   137   127   135      1
   138   132   133      1
   139   132   137      1
   140   132   139      1
   141   132   140      1
   142   133   134      1
   143   133   141      1
   144   133   142      1
   145   134   135      1
   146   134   136      1
   147   134   143      1
   148   135   144      1
   149   135   145      1
   150   136   137      1
   151   136   146      1
   152   136   147      1
   153   137   138      1
   154   137   148      1
   155   138   149      1
   156   138   150      1
   157   138   154      1
   158   151   152      1
   159   151   156      1
   160   151   158      1
   161   151   159      1
   162   152   153      1
   163   152   160      1
   164   152   161      1
   165   153   154      1
   166   153   155      1
   167   153   162      1
   168   154   163      1
   169   154   164      1
   170   155   156      1
   171   155   165      1
   172   155   166      1
   173   156   157      1
   174   156   167      1
   175   157   168      1
   176   157   169      1
   177   157   170      1
   178   170   171      1
   179   170   172      1
   180   170   173      1
   181   171   174      1
   182   171   175      1
   183   171   179      1
   184   176   177      1
   185   176   181      1
   186   176   183      1
   187   176   184      1
   188   177   178      1
   189   177   185      1
   190   177   186      1
   191   178   179      1
   192   178   180      1
   193   178   187      1
   194   179   188      1
   195   179   189      1
   196   180   181      1
   197   180   190      1
   198   180   191      1
   199   181   182      1
   200   181   192      1
   201   182   193      1
   202   182   194      1
   203   182   195      1
   204   195   196      1
   205   195   197      1
   206   195   198      1
   207   196   199      1
   208   196   200      1
   209   196   204      1
   210   201   202      1
   211   201   206      1
   212   201   208      1
   213   201   209      1
   214   202   203      1
   215   202   210      1
   216   202   211      1
   217   203   204      1
   218   203   205      1
   219   203   212      1
   220   204   213      1
   221   204   214      1
   222   205   206      1
   223   205   215      1
   224   205   216      1
   225   206   207      1
   226   206   217      1
   227   207   218      1
   228   207   219      1
   229   207   223      1
   230   220   221      1
   231   220   225      1
   232   220   227      1
   233   220   228      1
   234   221   222      1
   235   221   229      1
   236   221   230      1
   237   222   223      1
   238   222   224      1
   239   222   231      1
   240   223   232      1
   241   223   233      1
   242   224   225      1
   243   224   234      1
   244   224   235      1
   245   225   226      1
   246   225   236      1
   247   226   237      1
   248   226   238      1
   249   226   242      1
   250   239   240      1
   251   239   244      1
   252   239   246      1
   253   239   247      1
   254   240   241      1
   255   240   248      1
   256   240   249      1
   257   241   242      1
   258   241   243      1
   259   241   250      1
   260   242   251      1
   261   242   252      1
   262   243   244      1
   263   243   253      1
   264   243   254      1
   265   244   245      1
   266   244   255      1
   267   245   256      1
   268   245   257      1
   269   245   261      1
   270   258   259      1
   271   258   263      1
   272   258   265      1
   273   258   266      1
   274   259   260      1
   275   259   267      1
   276   259   268      1
   277   260   261      1
   278   260   262      1
   279   260   269      1
   280   261   270      1
   281   261   271      1
   282   262   263      1
   283   262   272      1
   284   262   273      1
   285   263   264      1
   286   263   274      1
   287   264   275      1
   288   264   276      1
   289   264   277      1
   290   277   278      1
   291   277   279      1
   292   277   280      1
   293   278   281      1
   294   278   282      1
   295   278   286      1
   296   283   284      1
   297   283   288      1
   298   283   290      1
   299   283   291      1
   300   284   285      1
   301   284   292      1
   302   284   293      1
   303   285   286      1
   304   285   287      1
   305   285   294      1
   306   286   295      1
   307   286   296      1
   308   287   288      1
   309   287   297      1
   310   287   298      1
   311   288   289      1
   312   288   299      1
   313   289   300      1
   314   289   301      1
   315   289   305      1
   316   302   303      1
   317   302   307      1
   318   302   309      1
   319   302   310      1
   320   303   304      1
   321   303   311      1
   322   303   312      1
   323   304   305      1
   324   304   306      1
   325   304   313      1
   326   305   314      1
   327   305   315      1
   328   306   307      1
   329   306   316      1
   330   306   317      1
   331   307   308      1
   332   307   318      1
   333   308   319      1
   334   308   320      1
   335   308   324      1
   336   321   322      1
   337   321   326      1
   338   321   328      1
   339   321   329      1
   340   322   323      1
   341   322   330      1
   342   322   331      1
   343   323   324      1
   344   323   325      1
   345   323   332      1
   346   324   333      1
   347   324   334      1
   348   325   326      1
   349   325   335      1
   350   325   336      1
   351   326   327      1
   352   326   337      1
   353   327   338      1
   354   327   339      1
   355   327   343      1
   356   340   341      1
   357   340   345      1
   358   340   347      1
   359   340   348      1
   360   341   342      1
   361   341   349      1
   362   341   350      1
   363   342   343      1
   364   342   344      1
   365   342   351      1
   366   343   352      1
   367   343   353      1
   368   344   345      1
   369   344   354      1
   370   344   355      1
   371   345   346      1
   372   345   356      1
   373   346   357      1
   374   346   358      1
   375   346   362      1
   376   359   360      1
   377   359   364      1
   378   359   366      1
   379   359   367      1
   380   360   361      1
   381   360   368      1
   382   360   369      1
   383   361   362      1
   384   361   363      1
   385   361   370      1
   386   362   371      1
   387   362   372      1
   388   363   364      1
   389   363   373      1
   390   363   374      1
   391   364   365      1
   392   364   375      1
   393   365   376      1
   394   365   377      1
   395   365   381      1
   396   378   379      1
   397   378   383      1
   398   378   385      1
   399   378   386      1
   400   379   380      1
   401   379   387      1
   402   379   388      1
   403   380   381      1
   404   380   382      1
   405   380   389      1
   406   381   390      1
   407   381   391      1
   408   382   383      1
   409   382   392      1
   410   382   393      1
   411   383   384      1
   412   383   394      1
   413   384   395      1
   414   384   396      1
   415   384   397      1
   416   397   398      1
   417   397   399      1
   418   397   400      1
   419   398   401      1
   420   398   402      1
   421   398   406      1
   422   403   404      1
   423   403   408      1
   424   403   410      1
   425   403   411      1
   426   404   405      1
   427   404   412      1
   428   404   413      1
   429   405   406      1
   430   405   407      1
   431   405   414      1
   432   406   415      1
   433   406   416      1
   434   407   408      1
   435   407   417      1
   436   407   418      1
   437   408   409      1
   438   408   419      1
   439   409   420      1
   440   409   421      1
   441   409   425      1
   442   422   423      1
   443   422   427      1
   444   422   429      1
   445   422   430      1
   446   423   424      1
   447   423   431      1
   448   423   432      1
   449   424   425      1
   450   424   426      1
   451   424   433      1
   452   425   434      1
   453   425   435      1
   454   426   427      1
   455   426   436      1
   456   426   437      1
   457   427   428      1
   458   427   438      1
   459   428   439      1
   460   428   440      1
   461   428   444      1
   462   441   442      1
   463   441   446      1
   464   441   448      1
   465   441   449      1
   466   442   443      1
   467   442   450      1
   468   442   451      1
   469   443   444      1
   470   443   445      1
   471   443   452      1
   472   444   453      1
   473   444   454      1
   474   445   446      1
   475   445   455      1
   476   445   456      1
   477   446   447      1
   478   446   457      1
   479   447   458      1
   480   447   459      1
   481   447   463      1
   482   460   461      1
   483   460   465      1
   484   460   467      1
   485   460   468      1
   486   461   462      1
   487   461   469      1
   488   461   470      1
   489   462   463      1
   490   462   464      1
   491   462   471      1
   492   463   472      1
   493   463   473      1
   494   464   465      1
   495   464   474      1
   496   464   475      1
   497   465   466      1
   498   465   476      1
   499   466   477      1
   500   466   478      1
   501   466   479      1
   502   479   480      1
   503   479   481      1
   504   479   482      1
   505   480   483      1
   506   480   484      1
   507   480   488      1
   508   485   486      1
   509   485   490      1
   510   485   492      1
   511   485   493      1
   512   486   487      1
   513   486   494      1
   514   486   495      1
   515   487   488      1
   516   487   489      1
   517   487   496      1
   518   488   497      1
   519   488   498      1
   520   489   490      1
   521   489   499      1
   522   489   500      1
   523   490   491      1
   524   490   501      1
   525   491   502      1
   526   491   503      1
   527   491   507      1
   528   504   505      1
   529   504   509      1
   530   504   511      1
   531   504   512      1
   532   505   506      1
   533   505   513      1
   534   505   514      1
   535   506   507      1
   536   506   508      1
   537   506   515      1
   538   507   516      1
   539   507   517      1
   540   508   509      1
   541   508   518      1
   542   508   519      1
   543   509   510      1
   544   509   520      1
   545   510   521      1
   546   510   522      1
   547   510   526      1
   548   523   524      1
   549   523   528      1
   550   523   530      1
   551   523   531      1
   552   524   525      1
   553   524   532      1
   554   524   533      1
   555   525   526      1
   556   525   527      1
   557   525   534      1
   558   526   535      1
   559   526   536      1
   560   527   528      1
   561   527   537      1
   562   527   538      1
   563   528   529      1
   564   528   539      1
   565   529   540      1
   566   529   541      1
   567   529   545      1
   568   542   543      1
   569   542   547      1
   570   542   549      1
   571   542   550      1
   572   543   544      1
   573   543   551      1
   574   543   552      1
   575   544   545      1
   576   544   546      1
   577   544   553      1
   578   545   554      1
   579   545   555      1
   580   546   547      1
   581   546   556      1
   582   546   557      1
   583   547   548      1
   584   547   558      1
   585   548   559      1
   586   548   560      1
   587   548   564      1
   588   561   562      1
   589   561   566      1
   590   561   568      1
   591   561   569      1
   592   562   563      1
   593   562   570      1
   594   562   571      1
   595   563   564      1
   596   563   565      1
   597   563   572      1
   598   564   573      1
   599   564   574      1
   600   565   566      1
   601   565   575      1
   602   565   576      1
   603   566   567      1
   604   566   577      1
   605   567   578      1
   606   567   579      1
   607   567   583      1
   608   580   581      1
   609   580   585      1
   610   580   587      1
   611   580   588      1
   612   581   582      1
   613   581   589      1
   614   581   590      1
   615   582   583      1
   616   582   584      1
   617   582   591      1
   618   583   592      1
   619   583   593      1
   620   584   585      1
   621   584   594      1
   622   584   595      1
   623   585   586      1
   624   585   596      1
   625   586   597      1
   626   586   598      1
   627   586   602      1
   628   599   600      1
   629   599   604      1
   630   599   606      1
   631   599   607      1
   632   600   601      1
   633   600   608      1
   634   600   609      1
   635   601   602      1
   636   601   603      1
   637   601   610      1
   638   602   611      1
   639   602   612      1
   640   603   604      1
   641   603   613      1
   642   603   614      1
   643   604   605      1
   644   604   615      1
   645   605   616      1
   646   605   617      1
   647   605   621      1
   648   618   619      1
   649   618   623      1
   650   618   625      1
   651   618   626      1
   652   619   620      1
   653   619   627      1
   654   619   628      1
   655   620   621      1
   656   620   622      1
   657   620   629      1
   658   621   630      1
   659   621   631      1
   660   622   623      1
   661   622   632      1
   662   622   633      1
   663   623   624      1
   664   623   634      1
   665   624   635      1
   666   624   636      1
   667   624   640      1
   668   637   638      1
   669   637   642      1
   670   637   644      1
   671   637   645      1
   672   638   639      1
   673   638   646      1
   674   638   647      1
   675   639   640      1
   676   639   641      1
   677   639   648      1
   678   640   649      1
   679   640   650      1
   680   641   642      1
   681   641   651      1
   682   641   652      1
   683   642   643      1
   684   642   653      1
   685   643   654      1
   686   643   655      1
   687   643   659      1
   688   656   657      1
   689   656   661      1
   690   656   663      1
   691   656   664      1
   692   657   658      1
   693   657   665      1
   694   657   666      1
   695   658   659      1
   696   658   660      1
   697   658   667      1
   698   659   668      1
   699   659   669      1
   700   660   661      1
   701   660   670      1
   702   660   671      1
   703   661   662      1
   704   661   672      1
   705   662   673      1
   706   662   674      1
   707   662   675      1
   708   675   676      1
   709   675   677      1
   710   675   678      1
   711   676   679      1
   712   676   680      1
   713   676   684      1
   714   681   682      1
   715   681   686      1
   716   681   688      1
   717   681   689      1
   718   682   683      1
   719   682   690      1
   720   682   691      1
   721   683   684      1
   722   683   685      1
   723   683   692      1
   724   684   693      1
   725   684   694      1
   726   685   686      1
   727   685   695      1
   728   685   696      1
   729   686   687      1
   730   686   697      1
   731   687   698      1
   732   687   699      1
   733   687   703      1
   734   700   701      1
   735   700   705      1
   736   700   707      1
   737   700   708      1
   738   701   702      1
   739   701   709      1
   740   701   710      1
   741   702   703      1
   742   702   704      1
   743   702   711      1
   744   703   712      1
   745   703   713      1
   746   704   705      1
   747   704   714      1
   748   704   715      1
   749   705   706      1
   750   705   716      1
   751   706   717      1
   752   706   718      1
   753   706   722      1
   754   719   720      1
   755   719   724      1
   756   719   726      1
   757   719   727      1
   758   720   721      1
   759   720   728      1
   760   720   729      1
   761   721   722      1
   762   721   723      1
   763   721   730      1
   764   722   731      1
   765   722   732      1
   766   723   724      1
   767   723   733      1
   768   723   734      1
   769   724   725      1
   770   724   735      1
   771   725   736      1
   772   725   737      1
   773   725   741      1
   774   738   739      1
   775   738   743      1
   776   738   745      1
   777   738   746      1
   778   739   740      1
   779   739   747      1
   780   739   748      1
   781   740   741      1
   782   740   742      1
   783   740   749      1
   784   741   750      1
   785   741   751      1
   786   742   743      1
   787   742   752      1
   788   742   753      1
   789   743   744      1
   790   743   754      1
   791   744   755      1
   792   744   756      1
   793   744   760      1
   794   757   758      1
   795   757   762      1
   796   757   764      1
   797   757   765      1
   798   758   759      1
   799   758   766      1
   800   758   767      1
   801   759   760      1
   802   759   761      1
   803   759   768      1
   804   760   769      1
   805   760   770      1
   806   761   762      1
   807   761   771      1
   808   761   772      1
   809   762   763      1
   810   762   773      1
   811   763   774      1
   812   763   775      1
   813   763   776      H
