###
### Created by PolyChef-cpp17 on Wed Feb 26 21:14:13 2025
###

@<TRIPOS>MOLECULE
NO_INFO
1135 1187 1 0 0
SMALL
USER_CHARGES


@<TRIPOS>ATOM
      1 C          85.6341  203.0271   90.4309 C.3       0        0    0.0000
      2 C          86.5027  204.2484   90.6981 C.3       0        0    0.0000
      3 C          87.9242  203.6868   90.5905 C.3       0        0    0.0000
      4 C          89.0251  204.5639   91.1946 C.3       0        0    0.0000
      5 C          87.8370  202.2523   91.1474 C.3       0        0    0.0000
      6 C          86.3330  201.9276   91.2373 C.3       0        0    0.0000
      7 C          85.9439  200.4930   90.8676 C.3       0        0    0.0000
      8 H          84.6005  203.1816   90.7560 H         0        0    0.0000
      9 H          85.6240  202.8079   89.3576 H         0        0    0.0000
     10 H          86.3199  205.0468   89.9723 H         0        0    0.0000
     11 H          86.2898  204.6423   91.6980 H         0        0    0.0000
     12 H          88.1508  203.5958   89.5174 H         0        0    0.0000
     13 H          89.2105  204.2452   92.2272 H         0        0    0.0000
     14 H          89.9578  204.3997   90.6420 H         0        0    0.0000
     15 H          88.2930  202.1518   92.1382 H         0        0    0.0000
     16 H          88.3812  201.5693   90.4863 H         0        0    0.0000
     17 H          86.0416  202.0692   92.2890 H         0        0    0.0000
     18 H          84.8745  200.3505   91.0630 H         0        0    0.0000
     19 H          86.0893  200.3484   89.7905 H         0        0    0.0000
     20 C          85.9914  199.4173   95.2664 C.3       1        0    0.0000
     21 C          85.7925  200.1170   93.9196 C.3       1        0    0.0000
     22 C          87.0443  199.8134   93.0769 C.3       1        0    0.0000
     23 C          86.7432  199.3955   91.6323 C.3       1        0    0.0000
     24 C          87.7760  198.7190   93.8604 C.3       1        0    0.0000
     25 C          87.4724  199.0283   95.3303 C.3       1        0    0.0000
     26 C          88.3687  200.1480   95.8924 C.3       1        0    0.0000
     27 H          85.6623  200.0418   96.1024 H         1        0    0.0000
     28 H          85.3792  198.5065   95.2850 H         1        0    0.0000
     29 H          84.8672  199.7674   93.4486 H         1        0    0.0000
     30 H          85.6940  201.1994   94.0630 H         1        0    0.0000
     31 H          87.6801  200.7102   93.0684 H         1        0    0.0000
     32 H          87.6861  199.2183   91.1015 H         1        0    0.0000
     33 H          86.1866  198.4514   91.6150 H         1        0    0.0000
     34 H          88.8487  198.7055   93.6416 H         1        0    0.0000
     35 H          87.3728  197.7308   93.6037 H         1        0    0.0000
     36 H          87.6024  198.1198   95.9320 H         1        0    0.0000
     37 H          87.7951  200.8336   96.5258 H         1        0    0.0000
     38 H          88.7720  200.7419   95.0636 H         1        0    0.0000
     39 C          89.5660  199.5759   96.7055 C.3       2        0    0.0000
     40 C          89.6660  200.1223   98.1369 C.3       2        0    0.0000
     41 H          89.4185  198.4900   96.7651 H         2        0    0.0000
     42 H          90.4986  199.7355   96.1516 H         2        0    0.0000
     43 H          90.7105  200.2679   98.4362 H         2        0    0.0000
     44 H          89.1928  201.1124   98.1572 H         2        0    0.0000
     45 C          86.8166  198.1065   96.3744 C.3       3        0    0.0000
     46 C          87.1490  199.2492   97.3371 C.3       3        0    0.0000
     47 C          87.6605  198.5972   98.6342 C.3       3        0    0.0000
     48 C          88.9271  199.2456   99.2065 C.3       3        0    0.0000
     49 C          87.8745  197.1261   98.2636 C.3       3        0    0.0000
     50 C          86.7912  196.8293   97.2212 C.3       3        0    0.0000
     51 C          85.4177  196.5556   97.8628 C.3       3        0    0.0000
     52 H          85.8874  198.2922   95.8273 H         3        0    0.0000
     53 H          87.6184  198.0280   95.6291 H         3        0    0.0000
     54 H          87.8834  199.9221   96.8807 H         3        0    0.0000
     55 H          86.2523  199.8435   97.5479 H         3        0    0.0000
     56 H          86.8586  198.6469   99.3846 H         3        0    0.0000
     57 H          88.6559  199.8860  100.0542 H         3        0    0.0000
     58 H          89.6086  198.4790   99.5928 H         3        0    0.0000
     59 H          87.8144  196.4700   99.1380 H         3        0    0.0000
     60 H          88.8651  196.9863   97.8117 H         3        0    0.0000
     61 H          87.0903  195.9644   96.6156 H         3        0    0.0000
     62 H          84.6133  197.0387   97.2972 H         3        0    0.0000
     63 H          85.3968  196.9811   98.8732 H         3        0    0.0000
     64 C          85.1255  195.0310   97.9734 C.3       4        0    0.0000
     65 C          83.8002  194.6013   97.3282 C.3       4        0    0.0000
     66 H          85.9413  194.5135   97.4526 H         4        0    0.0000
     67 H          85.1772  194.7202   99.0235 H         4        0    0.0000
     68 H          82.9755  194.6361   98.0497 H         4        0    0.0000
     69 H          83.5564  195.3231   96.5381 H         4        0    0.0000
     70 C          87.1085  193.5796   96.5562 C.3       5        0    0.0000
     71 C          85.9841  194.2062   95.7272 C.3       5        0    0.0000
     72 C          84.9190  193.1196   95.5435 C.3       5        0    0.0000
     73 C          83.8502  193.1882   96.6505 C.3       5        0    0.0000
     74 C          85.7623  191.8383   95.5533 C.3       5        0    0.0000
     75 C          86.8015  192.0758   96.6519 C.3       5        0    0.0000
     76 C          88.0267  191.1668   96.5020 C.3       5        0    0.0000
     77 H          88.0750  193.7799   96.0800 H         5        0    0.0000
     78 H          87.1421  194.0233   97.5579 H         5        0    0.0000
     79 H          86.3847  194.4902   94.7458 H         5        0    0.0000
     80 H          85.5947  195.1187   96.1901 H         5        0    0.0000
     81 H          84.4297  193.2396   94.5684 H         5        0    0.0000
     82 H          84.0828  192.4447   97.4225 H         5        0    0.0000
     83 H          82.8583  192.9344   96.2614 H         5        0    0.0000
     84 H          86.2573  191.7218   94.5803 H         5        0    0.0000
     85 H          85.1782  190.9310   95.7341 H         5        0    0.0000
     86 H          86.3286  191.8804   97.6246 H         5        0    0.0000
     87 H          88.4232  190.8958   97.4874 H         5        0    0.0000
     88 H          88.8215  191.7106   95.9780 H         5        0    0.0000
     89 C          88.0862  186.7580   97.7897 C.3       6        0    0.0000
     90 C          87.9432  188.2775   97.6693 C.3       6        0    0.0000
     91 C          88.4164  188.6439   96.2565 C.3       6        0    0.0000
     92 C          87.6940  189.8748   95.7018 C.3       6        0    0.0000
     93 C          88.1796  187.3537   95.4644 C.3       6        0    0.0000
     94 C          88.6397  186.2696   96.4447 C.3       6        0    0.0000
     95 C          88.1664  184.8549   96.0996 C.3       6        0    0.0000
     96 H          88.7545  186.4828   98.6127 H         6        0    0.0000
     97 H          87.1064  186.3151   98.0051 H         6        0    0.0000
     98 H          88.5369  188.7968   98.4293 H         6        0    0.0000
     99 H          86.8953  188.5592   97.8273 H         6        0    0.0000
    100 H          89.4983  188.8372   96.2969 H         6        0    0.0000
    101 H          86.6110  189.7082   95.7431 H         6        0    0.0000
    102 H          87.9509  190.0230   94.6464 H         6        0    0.0000
    103 H          88.7549  187.3341   94.5334 H         6        0    0.0000
    104 H          87.1175  187.2342   95.2166 H         6        0    0.0000
    105 H          89.7380  186.2889   96.4988 H         6        0    0.0000
    106 H          87.2914  184.8969   95.4404 H         6        0    0.0000
    107 H          87.8468  184.3463   97.0170 H         6        0    0.0000
    108 C          89.2803  184.0066   95.4270 C.3       7        0    0.0000
    109 C          89.1417  182.4957   95.6623 C.3       7        0    0.0000
    110 H          89.2104  184.1908   94.3473 H         7        0    0.0000
    111 H          90.2645  184.3710   95.7440 H         7        0    0.0000
    112 H          89.1203  182.2590   96.7325 H         7        0    0.0000
    113 H          88.1765  182.1741   95.2504 H         7        0    0.0000
    114 C          90.2452  181.6366   94.9530 C.3       8        0    0.0000
    115 C          90.0264  180.1213   95.0688 C.3       8        0    0.0000
    116 H          91.1983  181.8811   95.4393 H         8        0    0.0000
    117 H          90.3389  181.9472   93.9058 H         8        0    0.0000
    118 H          89.9823  179.8641   96.1349 H         8        0    0.0000
    119 H          89.0650  179.8227   94.6345 H         8        0    0.0000
    120 C          91.1787  179.2615   94.4431 C.3       9        0    0.0000
    121 C          91.6312  178.0887   95.3246 C.3       9        0    0.0000
    122 H          90.7920  178.8505   93.5017 H         9        0    0.0000
    123 H          92.0220  179.9103   94.1787 H         9        0    0.0000
    124 H          92.0550  178.4420   96.2719 H         9        0    0.0000
    125 H          90.7454  177.4931   95.5799 H         9        0    0.0000
    126 C          92.6426  177.1174   94.6228 C.3      10        0    0.0000
    127 C          94.0284  177.0766   95.2826 C.3      10        0    0.0000
    128 H          92.7661  177.4781   93.5936 H        10        0    0.0000
    129 H          92.2043  176.1149   94.5531 H        10        0    0.0000
    130 H          94.7501  176.7190   94.5370 H        10        0    0.0000
    131 H          94.3574  178.0787   95.5819 H        10        0    0.0000
    132 C          97.7372  175.0271   96.9795 C.3      11        0    0.0000
    133 C          96.6049  175.5000   96.0785 C.3      11        0    0.0000
    134 C          95.5344  175.9453   97.0802 C.3      11        0    0.0000
    135 C          94.1225  176.1019   96.5073 C.3      11        0    0.0000
    136 C          95.6645  174.9755   98.2710 C.3      11        0    0.0000
    137 C          97.0015  174.2365   98.0665 C.3      11        0    0.0000
    138 C          97.8071  173.9642   99.3404 C.3      11        0    0.0000
    139 H          98.4590  174.4079   96.4380 H        11        0    0.0000
    140 H          98.2704  175.8923   97.3887 H        11        0    0.0000
    141 H          96.9191  176.3173   95.4220 H        11        0    0.0000
    142 H          96.2616  174.6712   95.4497 H        11        0    0.0000
    143 H          95.8345  176.9384   97.4473 H        11        0    0.0000
    144 H          93.7482  175.1171   96.2033 H        11        0    0.0000
    145 H          93.4532  176.4632   97.2971 H        11        0    0.0000
    146 H          94.8475  174.2476   98.3185 H        11        0    0.0000
    147 H          95.6295  175.5406   99.2087 H        11        0    0.0000
    148 H          96.7566  173.2540   97.6356 H        11        0    0.0000
    149 H          98.8744  173.9381   99.0904 H        11        0    0.0000
    150 H          97.6673  174.7984  100.0381 H        11        0    0.0000
    151 C          99.5405  170.3932  102.2420 C.3      12        0    0.0000
    152 C          98.1744  170.8864  101.7578 C.3      12        0    0.0000
    153 C          98.3988  172.2986  101.2016 C.3      12        0    0.0000
    154 C          97.4302  172.6371  100.0650 C.3      12        0    0.0000
    155 C          99.8768  172.2830  100.7976 C.3      12        0    0.0000
    156 C         100.5334  171.5280  101.9581 C.3      12        0    0.0000
    157 C         101.9433  171.0080  101.6645 C.3      12        0    0.0000
    158 H          99.5216  170.1456  103.3088 H        12        0    0.0000
    159 H          99.8111  169.4786  101.7009 H        12        0    0.0000
    160 H          97.4413  170.8966  102.5715 H        12        0    0.0000
    161 H          97.7936  170.2069  100.9860 H        12        0    0.0000
    162 H          98.2677  173.0159  102.0248 H        12        0    0.0000
    163 H          96.4165  172.7373  100.4710 H        12        0    0.0000
    164 H          97.3991  171.8192   99.3356 H        12        0    0.0000
    165 H         100.2811  173.2942  100.6867 H        12        0    0.0000
    166 H         100.0195  171.7483   99.8502 H        12        0    0.0000
    167 H         100.5587  172.1889  102.8368 H        12        0    0.0000
    168 H         102.6136  171.8414  101.4240 H        12        0    0.0000
    169 H         101.9135  170.3609  100.7796 H        12        0    0.0000
    170 C         102.5326  170.1961  102.8505 C.3      13        0    0.0000
    171 C         103.0794  168.8177  102.4523 C.3      13        0    0.0000
    172 H         103.3630  170.7872  103.2574 H        13        0    0.0000
    173 H         101.7859  170.1136  103.6489 H        13        0    0.0000
    174 H         102.5706  168.4286  101.5626 H        13        0    0.0000
    175 H         104.1367  168.9358  102.1827 H        13        0    0.0000
    176 C         104.3523  164.4424  104.4632 C.3      14        0    0.0000
    177 C         103.4855  165.2453  103.4944 C.3      14        0    0.0000
    178 C         104.0858  166.6605  103.4346 C.3      14        0    0.0000
    179 C         103.0216  167.7531  103.6020 C.3      14        0    0.0000
    180 C         105.1708  166.6714  104.5224 C.3      14        0    0.0000
    181 C         105.6631  165.2208  104.6025 C.3      14        0    0.0000
    182 C         106.6741  164.8365  103.5068 C.3      14        0    0.0000
    183 H         103.8506  164.4023  105.4385 H        14        0    0.0000
    184 H         104.4937  163.4095  104.1298 H        14        0    0.0000
    185 H         102.4401  165.2389  103.8222 H        14        0    0.0000
    186 H         103.5128  164.7918  102.4966 H        14        0    0.0000
    187 H         104.5703  166.7799  102.4552 H        14        0    0.0000
    188 H         103.1360  168.2508  104.5720 H        14        0    0.0000
    189 H         102.0263  167.2926  103.5980 H        14        0    0.0000
    190 H         105.9699  167.3846  104.2979 H        14        0    0.0000
    191 H         104.7374  166.9573  105.4897 H        14        0    0.0000
    192 H         106.1060  165.0256  105.5875 H        14        0    0.0000
    193 H         106.5862  165.4953  102.6362 H        14        0    0.0000
    194 H         106.4558  163.8211  103.1545 H        14        0    0.0000
    195 C         108.1384  164.8594  104.0294 C.3      15        0    0.0000
    196 C         109.0385  163.7801  103.4109 C.3      15        0    0.0000
    197 H         108.5535  165.8407  103.7662 H        15        0    0.0000
    198 H         108.1409  164.8015  105.1242 H        15        0    0.0000
    199 H         108.5369  162.8055  103.3914 H        15        0    0.0000
    200 H         109.2307  164.0550  102.3658 H        15        0    0.0000
    201 C         112.9240  164.3800  101.5105 C.3      16        0    0.0000
    202 C         111.4723  164.5474  101.9569 C.3      16        0    0.0000
    203 C         111.4849  164.5798  103.4950 C.3      16        0    0.0000
    204 C         110.4367  163.6410  104.1068 C.3      16        0    0.0000
    205 C         112.9323  164.2389  103.8816 C.3      16        0    0.0000
    206 C         113.7844  164.7613  102.7179 C.3      16        0    0.0000
    207 C         114.0593  166.2753  102.7674 C.3      16        0    0.0000
    208 H         113.0991  163.3257  101.2607 H        16        0    0.0000
    209 H         113.1491  164.9662  100.6141 H        16        0    0.0000
    210 H         110.8528  163.7395  101.5524 H        16        0    0.0000
    211 H         111.0640  165.4895  101.5726 H        16        0    0.0000
    212 H         111.2709  165.6103  103.8121 H        16        0    0.0000
    213 H         110.3348  163.8324  105.1813 H        16        0    0.0000
    214 H         110.7746  162.6031  104.0008 H        16        0    0.0000
    215 H         113.2120  164.6717  104.8471 H        16        0    0.0000
    216 H         113.0596  163.1513  103.9597 H        16        0    0.0000
    217 H         114.7392  164.2217  102.6764 H        16        0    0.0000
    218 H         113.2520  166.8092  103.2801 H        16        0    0.0000
    219 H         114.0948  166.6692  101.7444 H        16        0    0.0000
    220 C         115.0854  163.4281  105.4685 C.3      17        0    0.0000
    221 C         114.5362  164.7788  105.0018 C.3      17        0    0.0000
    222 C         115.7511  165.6140  104.5768 C.3      17        0    0.0000
    223 C         115.4155  166.6005  103.4549 C.3      17        0    0.0000
    224 C         116.7906  164.5519  104.2035 C.3      17        0    0.0000
    225 C         116.6093  163.5035  105.3062 C.3      17        0    0.0000
    226 C         117.2299  162.1383  104.9969 C.3      17        0    0.0000
    227 H         114.8110  163.2223  106.5087 H        17        0    0.0000
    228 H         114.6556  162.6275  104.8547 H        17        0    0.0000
    229 H         113.9747  165.2792  105.7980 H        17        0    0.0000
    230 H         113.8445  164.6222  104.1654 H        17        0    0.0000
    231 H         116.1131  166.1648  105.4573 H        17        0    0.0000
    232 H         116.2071  166.5693  102.6966 H        17        0    0.0000
    233 H         115.3910  167.6251  103.8441 H        17        0    0.0000
    234 H         117.8061  164.9603  104.1904 H        17        0    0.0000
    235 H         116.5778  164.1241  103.2158 H        17        0    0.0000
    236 H         117.0341  163.8997  106.2400 H        17        0    0.0000
    237 H         117.3714  162.0210  103.9161 H        17        0    0.0000
    238 H         116.5398  161.3470  105.3132 H        17        0    0.0000
    239 C         118.1382  158.8524  107.7486 C.3      18        0    0.0000
    240 C         117.4510  159.9985  107.0022 C.3      18        0    0.0000
    241 C         118.4116  161.1998  107.0598 C.3      18        0    0.0000
    242 C         118.5877  161.9285  105.7218 C.3      18        0    0.0000
    243 C         119.7269  160.6124  107.5816 C.3      18        0    0.0000
    244 C         119.2977  159.4845  108.5262 C.3      18        0    0.0000
    245 C         118.8821  160.0070  109.9145 C.3      18        0    0.0000
    246 H         117.4359  158.2968  108.3772 H        18        0    0.0000
    247 H         118.5418  158.1441  107.0137 H        18        0    0.0000
    248 H         117.2156  159.6906  105.9775 H        18        0    0.0000
    249 H         116.5031  160.2565  107.4887 H        18        0    0.0000
    250 H         118.0330  161.9086  107.8100 H        18        0    0.0000
    251 H         119.0423  162.9103  105.9001 H        18        0    0.0000
    252 H         119.2738  161.3741  105.0712 H        18        0    0.0000
    253 H         120.3461  161.3682  108.0756 H        18        0    0.0000
    254 H         120.3131  160.1931  106.7537 H        18        0    0.0000
    255 H         120.1191  158.7654  108.6375 H        18        0    0.0000
    256 H         117.9911  159.4866  110.2827 H        18        0    0.0000
    257 H         118.6226  161.0698  109.8406 H        18        0    0.0000
    258 C         120.2528  156.3365  109.8118 C.3      19        0    0.0000
    259 C         119.4330  157.3792  110.5757 C.3      19        0    0.0000
    260 C         120.4375  158.3945  111.1495 C.3      19        0    0.0000
    261 C         120.0306  159.8603  110.9544 C.3      19        0    0.0000
    262 C         121.7602  158.0586  110.4532 C.3      19        0    0.0000
    263 C         121.7098  156.5418  110.2404 C.3      19        0    0.0000
    264 C         122.0828  155.7574  111.5127 C.3      19        0    0.0000
    265 H         119.8812  155.3215  109.9821 H        19        0    0.0000
    266 H         120.1629  156.5354  108.7361 H        19        0    0.0000
    267 H         118.6967  157.8398  109.9079 H        19        0    0.0000
    268 H         118.8770  156.9038  111.3922 H        19        0    0.0000
    269 H         120.5565  158.1926  112.2237 H        19        0    0.0000
    270 H         119.6885  160.2726  111.9111 H        19        0    0.0000
    271 H         120.8936  160.4588  110.6409 H        19        0    0.0000
    272 H         122.6263  158.3767  111.0425 H        19        0    0.0000
    273 H         121.8182  158.5627  109.4798 H        19        0    0.0000
    274 H         122.3899  156.2617  109.4261 H        19        0    0.0000
    275 H         121.4258  154.8915  111.6506 H        19        0    0.0000
    276 H         121.9491  156.4017  112.3898 H        19        0    0.0000
    277 C         123.5638  155.2804  111.4836 C.3      20        0    0.0000
    278 C         123.7336  153.7625  111.6410 C.3      20        0    0.0000
    279 H         123.9705  155.5688  110.5059 H        20        0    0.0000
    280 H         124.1428  155.8268  112.2374 H        20        0    0.0000
    281 H         124.6502  153.5185  112.1907 H        20        0    0.0000
    282 H         122.8969  153.3871  112.2440 H        20        0    0.0000
    283 C         126.1247  155.5098  109.1967 C.3      21        0    0.0000
    284 C         125.9009  154.2497  110.0312 C.3      21        0    0.0000
    285 C         124.8028  153.4395  109.3207 C.3      21        0    0.0000
    286 C         123.7044  152.9743  110.2859 C.3      21        0    0.0000
    287 C         124.3009  154.3612  108.1985 C.3      21        0    0.0000
    288 C         125.5142  155.2213  107.8228 C.3      21        0    0.0000
    289 C         126.5179  154.5219  106.8879 C.3      21        0    0.0000
    290 H         125.5860  156.3446  109.6632 H        21        0    0.0000
    291 H         127.1814  155.7917  109.1521 H        21        0    0.0000
    292 H         125.6364  154.5152  111.0606 H        21        0    0.0000
    293 H         126.8225  153.6576  110.0780 H        21        0    0.0000
    294 H         125.2757  152.5581  108.8651 H        21        0    0.0000
    295 H         123.7995  151.8999  110.4817 H        21        0    0.0000
    296 H         122.7240  153.1252  109.8184 H        21        0    0.0000
    297 H         123.8966  153.7959  107.3532 H        21        0    0.0000
    298 H         123.5001  155.0133  108.5708 H        21        0    0.0000
    299 H         125.1836  156.1603  107.3607 H        21        0    0.0000
    300 H         126.7587  153.5150  107.2453 H        21        0    0.0000
    301 H         127.4587  155.0856  106.8821 H        21        0    0.0000
    302 C         127.4223  151.2840  104.2168 C.3      22        0    0.0000
    303 C         126.3617  152.3610  103.9941 C.3      22        0    0.0000
    304 C         126.9609  153.6824  104.5058 C.3      22        0    0.0000
    305 C         125.9961  154.4429  105.4252 C.3      22        0    0.0000
    306 C         128.2807  153.2780  105.1805 C.3      22        0    0.0000
    307 C         128.7444  152.0281  104.4217 C.3      22        0    0.0000
    308 C         129.4446  152.3263  103.0833 C.3      22        0    0.0000
    309 H         127.1761  150.7270  105.1299 H        22        0    0.0000
    310 H         127.4534  150.5609  103.3957 H        22        0    0.0000
    311 H         125.4298  152.0902  104.5023 H        22        0    0.0000
    312 H         126.1316  152.4510  102.9259 H        22        0    0.0000
    313 H         127.1913  154.3086  103.6323 H        22        0    0.0000
    314 H         125.0062  153.9723  105.4115 H        22        0    0.0000
    315 H         125.8662  155.4644  105.0481 H        22        0    0.0000
    316 H         129.0158  154.0886  105.1630 H        22        0    0.0000
    317 H         128.1062  153.0154  106.2320 H        22        0    0.0000
    318 H         129.4121  151.4282  105.0533 H        22        0    0.0000
    319 H         130.2651  153.0399  103.2144 H        22        0    0.0000
    320 H         128.7282  152.7952  102.3979 H        22        0    0.0000
    321 C         129.9001  147.3552  102.8826 C.3      23        0    0.0000
    322 C         129.2830  148.5625  102.1722 C.3      23        0    0.0000
    323 C         129.4752  149.7693  103.1080 C.3      23        0    0.0000
    324 C         129.9832  151.0346  102.4056 C.3      23        0    0.0000
    325 C         130.4460  149.2688  104.1824 C.3      23        0    0.0000
    326 C         130.1141  147.7810  104.3392 C.3      23        0    0.0000
    327 C         128.8773  147.5453  105.2268 C.3      23        0    0.0000
    328 H         129.2839  146.4580  102.7707 H        23        0    0.0000
    329 H         130.8734  147.1359  102.4253 H        23        0    0.0000
    330 H         129.7551  148.7032  101.1936 H        23        0    0.0000
    331 H         128.2141  148.3955  101.9951 H        23        0    0.0000
    332 H         128.5126  149.9869  103.5924 H        23        0    0.0000
    333 H         131.0790  151.0542  102.4406 H        23        0    0.0000
    334 H         129.6993  151.0250  101.3470 H        23        0    0.0000
    335 H         130.3455  149.8278  105.1184 H        23        0    0.0000
    336 H         131.4834  149.3782  103.8407 H        23        0    0.0000
    337 H         130.9766  147.2547  104.7675 H        23        0    0.0000
    338 H         128.1491  148.3562  105.1142 H        23        0    0.0000
    339 H         129.1819  147.5346  106.2800 H        23        0    0.0000
    340 C         130.1872  143.7957  102.7331 C.3      24        0    0.0000
    341 C         129.6386  145.1887  103.0085 C.3      24        0    0.0000
    342 C         129.1503  145.0835  104.4570 C.3      24        0    0.0000
    343 C         128.1882  146.1867  104.9082 C.3      24        0    0.0000
    344 C         128.6245  143.6423  104.6043 C.3      24        0    0.0000
    345 C         129.1309  142.8818  103.3630 C.3      24        0    0.0000
    346 C         129.5745  141.4366  103.6094 C.3      24        0    0.0000
    347 H         130.3072  143.6080  101.6616 H        24        0    0.0000
    348 H         131.1670  143.6829  103.2101 H        24        0    0.0000
    349 H         130.4046  145.9610  102.8878 H        24        0    0.0000
    350 H         128.8212  145.4087  102.3129 H        24        0    0.0000
    351 H         130.0399  145.1625  105.1000 H        24        0    0.0000
    352 H         127.4364  146.3479  104.1266 H        24        0    0.0000
    353 H         127.6478  145.8483  105.8002 H        24        0    0.0000
    354 H         127.5312  143.5900  104.6447 H        24        0    0.0000
    355 H         128.9891  143.2138  105.5441 H        24        0    0.0000
    356 H         128.2885  142.8338  102.6565 H        24        0    0.0000
    357 H         129.9006  141.3349  104.6514 H        24        0    0.0000
    358 H         128.7128  140.7706  103.4826 H        24        0    0.0000
    359 C         132.0386  137.4517  102.1668 C.3      25        0    0.0000
    360 C         131.2101  138.6478  101.7234 C.3      25        0    0.0000
    361 C         131.1631  139.5173  102.9814 C.3      25        0    0.0000
    362 C         130.7238  140.9514  102.6757 C.3      25        0    0.0000
    363 C         132.5808  139.3894  103.5681 C.3      25        0    0.0000
    364 C         133.1663  138.0832  102.9930 C.3      25        0    0.0000
    365 C         133.8289  137.1524  104.0164 C.3      25        0    0.0000
    366 H         132.4249  136.8839  101.3146 H        25        0    0.0000
    367 H         131.4165  136.7769  102.7646 H        25        0    0.0000
    368 H         131.7097  139.1710  100.8989 H        25        0    0.0000
    369 H         130.2117  138.3523  101.3869 H        25        0    0.0000
    370 H         130.4563  139.0605  103.6895 H        25        0    0.0000
    371 H         131.5759  141.6355  102.7663 H        25        0    0.0000
    372 H         130.3814  141.0115  101.6357 H        25        0    0.0000
    373 H         133.2149  140.2303  103.2607 H        25        0    0.0000
    374 H         132.5487  139.4004  104.6626 H        25        0    0.0000
    375 H         133.9560  138.3781  102.2860 H        25        0    0.0000
    376 H         133.8176  136.1270  103.6281 H        25        0    0.0000
    377 H         133.2283  137.1473  104.9338 H        25        0    0.0000
    378 C         135.8964  133.8863  104.6743 C.3      26        0    0.0000
    379 C         135.8080  135.2264  105.4086 C.3      26        0    0.0000
    380 C         136.2147  136.3112  104.3952 C.3      26        0    0.0000
    381 C         135.2918  137.5361  104.3813 C.3      26        0    0.0000
    382 C         136.2397  135.5842  103.0468 C.3      26        0    0.0000
    383 C         136.6818  134.1567  103.3863 C.3      26        0    0.0000
    384 C         138.2068  134.0425  103.5718 C.3      26        0    0.0000
    385 H         136.3348  133.1055  105.3031 H        26        0    0.0000
    386 H         134.8818  133.5582  104.4147 H        26        0    0.0000
    387 H         134.7965  135.3711  105.8040 H        26        0    0.0000
    388 H         136.4946  135.2393  106.2630 H        26        0    0.0000
    389 H         137.2396  136.6338  104.6279 H        26        0    0.0000
    390 H         135.2921  138.0022  105.3738 H        26        0    0.0000
    391 H         135.6647  138.2885  103.6769 H        26        0    0.0000
    392 H         136.9037  136.0755  102.3283 H        26        0    0.0000
    393 H         135.2343  135.5608  102.6068 H        26        0    0.0000
    394 H         136.3583  133.4725  102.5917 H        26        0    0.0000
    395 H         138.4910  134.1990  104.6183 H        26        0    0.0000
    396 H         138.7042  134.8248  102.9862 H        26        0    0.0000
    397 C         138.7451  132.6631  103.0929 C.3      27        0    0.0000
    398 C         140.2008  132.6964  102.6058 C.3      27        0    0.0000
    399 H         138.6898  131.9850  103.9543 H        27        0    0.0000
    400 H         138.0774  132.2516  102.3269 H        27        0    0.0000
    401 H         140.4916  133.7042  102.2868 H        27        0    0.0000
    402 H         140.8491  132.4359  103.4522 H        27        0    0.0000
    403 C         139.3304  132.1730   97.8995 C.3      28        0    0.0000
    404 C         140.0521  132.6999   99.1304 C.3      28        0    0.0000
    405 C         139.5785  131.7656  100.2510 C.3      28        0    0.0000
    406 C         140.5139  131.6694  101.4630 C.3      28        0    0.0000
    407 C         139.2457  130.4252   99.5638 C.3      28        0    0.0000
    408 C         139.4503  130.6556   98.0553 C.3      28        0    0.0000
    409 C         138.4682  129.9035   97.1538 C.3      28        0    0.0000
    410 H         138.2805  132.4903   97.9100 H        28        0    0.0000
    411 H         139.7874  132.5313   96.9720 H        28        0    0.0000
    412 H         141.1345  132.6411   98.9733 H        28        0    0.0000
    413 H         139.8000  133.7451   99.3357 H        28        0    0.0000
    414 H         138.6267  132.1705  100.6261 H        28        0    0.0000
    415 H         140.4566  130.6557  101.8770 H        28        0    0.0000
    416 H         141.5483  131.8145  101.1295 H        28        0    0.0000
    417 H         138.2051  130.1585   99.7869 H        28        0    0.0000
    418 H         139.8679  129.5958   99.9160 H        28        0    0.0000
    419 H         140.4795  130.3636   97.8002 H        28        0    0.0000
    420 H         137.5188  130.4486   97.0911 H        28        0    0.0000
    421 H         138.8727  129.8583   96.1356 H        28        0    0.0000
    422 C         140.9799  128.1091  100.2104 C.3      29        0    0.0000
    423 C         140.1724  128.9617   99.2417 C.3      29        0    0.0000
    424 C         138.9851  128.0564   98.8975 C.3      29        0    0.0000
    425 C         138.1953  128.4549   97.6471 C.3      29        0    0.0000
    426 C         139.5543  126.6241   98.8955 C.3      29        0    0.0000
    427 C         140.9420  126.7228   99.5588 C.3      29        0    0.0000
    428 C         141.3205  125.5552  100.4751 C.3      29        0    0.0000
    429 H         142.0026  128.4807  100.3273 H        29        0    0.0000
    430 H         140.5011  128.1146  101.1958 H        29        0    0.0000
    431 H         139.8524  129.9046   99.6959 H        29        0    0.0000
    432 H         140.7800  129.1972   98.3610 H        29        0    0.0000
    433 H         138.2830  128.1161   99.7428 H        29        0    0.0000
    434 H         138.4323  127.7561   96.8361 H        29        0    0.0000
    435 H         137.1232  128.3484   97.8513 H        29        0    0.0000
    436 H         139.6592  126.2091   97.8872 H        29        0    0.0000
    437 H         138.8714  125.9581   99.4339 H        29        0    0.0000
    438 H         141.6816  126.7331   98.7440 H        29        0    0.0000
    439 H         140.7783  125.6536  101.4230 H        29        0    0.0000
    440 H         140.9859  124.6169  100.0168 H        29        0    0.0000
    441 C         145.7457  126.1131   98.4599 C.3      30        0    0.0000
    442 C         144.8024  126.5316   99.5774 C.3      30        0    0.0000
    443 C         143.7001  125.4726   99.5099 C.3      30        0    0.0000
    444 C         142.8450  125.4480  100.7792 C.3      30        0    0.0000
    445 C         144.4640  124.1670   99.2226 C.3      30        0    0.0000
    446 C         145.8106  124.5868   98.5982 C.3      30        0    0.0000
    447 C         146.2103  123.8300   97.3252 C.3      30        0    0.0000
    448 H         146.7324  126.5754   98.5636 H        30        0    0.0000
    449 H         145.3304  126.4232   97.4949 H        30        0    0.0000
    450 H         145.3213  126.5019  100.5433 H        30        0    0.0000
    451 H         144.4138  127.5436   99.4280 H        30        0    0.0000
    452 H         143.0620  125.6947   98.6422 H        30        0    0.0000
    453 H         143.0364  124.5294  101.3464 H        30        0    0.0000
    454 H         143.1343  126.2839  101.4272 H        30        0    0.0000
    455 H         144.6579  123.6091  100.1472 H        30        0    0.0000
    456 H         143.8758  123.5098   98.5735 H        30        0    0.0000
    457 H         146.5860  124.3648   99.3465 H        30        0    0.0000
    458 H         147.2989  123.7003   97.3125 H        30        0    0.0000
    459 H         145.9569  124.4434   96.4524 H        30        0    0.0000
    460 C         142.5042  122.3326   99.4371 C.3      31        0    0.0000
    461 C         143.6148  123.1253   98.7649 C.3      31        0    0.0000
    462 C         144.6123  122.0451   98.3279 C.3      31        0    0.0000
    463 C         145.5357  122.4370   97.1674 C.3      31        0    0.0000
    464 C         143.7744  120.7692   98.1052 C.3      31        0    0.0000
    465 C         142.3327  121.1284   98.5090 C.3      31        0    0.0000
    466 C         141.5527  119.9925   99.1755 C.3      31        0    0.0000
    467 H         142.8160  122.0179  100.4404 H        31        0    0.0000
    468 H         141.5836  122.9166   99.5317 H        31        0    0.0000
    469 H         143.2054  123.6788   97.9129 H        31        0    0.0000
    470 H         144.0699  123.8501   99.4472 H        31        0    0.0000
    471 H         145.2663  121.8444   99.1896 H        31        0    0.0000
    472 H         146.3196  121.6772   97.0643 H        31        0    0.0000
    473 H         144.9618  122.4248   96.2332 H        31        0    0.0000
    474 H         144.1744  119.9652   98.7356 H        31        0    0.0000
    475 H         143.8080  120.4081   97.0720 H        31        0    0.0000
    476 H         141.7971  121.4615   97.6081 H        31        0    0.0000
    477 H         141.5068  120.1504  100.2596 H        31        0    0.0000
    478 H         140.5182  120.0015   98.8122 H        31        0    0.0000
    479 C         142.1706  118.5954   98.8873 C.3      32        0    0.0000
    480 C         141.4826  117.4431   99.6331 C.3      32        0    0.0000
    481 H         142.0615  118.4169   97.8099 H        32        0    0.0000
    482 H         143.2471  118.6179   99.0938 H        32        0    0.0000
    483 H         141.9540  117.2596  100.6057 H        32        0    0.0000
    484 H         140.4462  117.7408   99.8379 H        32        0    0.0000
    485 C         140.3258  112.6198   99.1803 C.3      33        0    0.0000
    486 C         141.2807  113.7052   99.6747 C.3      33        0    0.0000
    487 C         140.5469  115.0472   99.5085 C.3      33        0    0.0000
    488 C         141.4164  116.1057   98.8172 C.3      33        0    0.0000
    489 C         139.2605  114.6975   98.7446 C.3      33        0    0.0000
    490 C         138.9342  113.2575   99.1605 C.3      33        0    0.0000
    491 C         138.2328  113.1390  100.5259 C.3      33        0    0.0000
    492 H         140.6083  112.3374   98.1580 H        33        0    0.0000
    493 H         140.3799  111.7140   99.7924 H        33        0    0.0000
    494 H         142.2251  113.6642   99.1211 H        33        0    0.0000
    495 H         141.5204  113.5459  100.7327 H        33        0    0.0000
    496 H         140.2727  115.4077  100.5100 H        33        0    0.0000
    497 H         141.0402  116.3075   97.8076 H        33        0    0.0000
    498 H         142.4361  115.7185   98.7035 H        33        0    0.0000
    499 H         138.4507  115.4012   98.9608 H        33        0    0.0000
    500 H         139.4406  114.7264   97.6620 H        33        0    0.0000
    501 H         138.3166  112.7731   98.3935 H        33        0    0.0000
    502 H         137.6677  114.0469  100.7625 H        33        0    0.0000
    503 H         138.9895  113.0273  101.3119 H        33        0    0.0000
    504 C         139.2276  108.7571   99.8504 C.3      34        0    0.0000
    505 C         139.1012  110.1327  100.4870 C.3      34        0    0.0000
    506 C         137.8410  110.6998   99.8302 C.3      34        0    0.0000
    507 C         137.2867  111.9066  100.5913 C.3      34        0    0.0000
    508 C         136.8899  109.4911   99.7590 C.3      34        0    0.0000
    509 C         137.7847  108.2367   99.8318 C.3      34        0    0.0000
    510 C         137.4911  107.1570   98.7825 C.3      34        0    0.0000
    511 H         139.8913  108.1014  100.4228 H        34        0    0.0000
    512 H         139.6438  108.8571   98.8421 H        34        0    0.0000
    513 H         138.9739  110.0386  101.5723 H        34        0    0.0000
    514 H         139.9819  110.7540  100.2978 H        34        0    0.0000
    515 H         138.0932  110.9988   98.8024 H        34        0    0.0000
    516 H         136.3032  112.1849  100.1945 H        34        0    0.0000
    517 H         137.1361  111.6339  101.6426 H        34        0    0.0000
    518 H         136.1943  109.4830  100.6074 H        34        0    0.0000
    519 H         136.2804  109.5319   98.8501 H        34        0    0.0000
    520 H         137.5974  107.7744  100.8124 H        34        0    0.0000
    521 H         138.4066  106.5847   98.5915 H        34        0    0.0000
    522 H         137.2219  107.6434   97.8373 H        34        0    0.0000
    523 C         133.1531  106.3689  101.1616 C.3      35        0    0.0000
    524 C         133.8967  106.3328   99.8239 C.3      35        0    0.0000
    525 C         135.3257  106.8112  100.1125 C.3      35        0    0.0000
    526 C         136.3542  106.1707   99.1763 C.3      35        0    0.0000
    527 C         135.5136  106.4724  101.5950 C.3      35        0    0.0000
    528 C         134.1637  106.8677  102.2028 C.3      35        0    0.0000
    529 C         133.8974  106.2902  103.5957 C.3      35        0    0.0000
    530 H         132.2789  107.0273  101.1159 H        35        0    0.0000
    531 H         132.7899  105.3632  101.4047 H        35        0    0.0000
    532 H         133.4114  106.9723   99.0788 H        35        0    0.0000
    533 H         133.8881  105.3098   99.4290 H        35        0    0.0000
    534 H         135.3509  107.9046   99.9967 H        35        0    0.0000
    535 H         135.8512  105.8352   98.2614 H        35        0    0.0000
    536 H         136.7897  105.2793   99.6426 H        35        0    0.0000
    537 H         136.3423  107.0319  102.0406 H        35        0    0.0000
    538 H         135.7074  105.4011  101.7318 H        35        0    0.0000
    539 H         134.1038  107.9653  102.2401 H        35        0    0.0000
    540 H         134.8438  106.0826  104.1086 H        35        0    0.0000
    541 H         133.3749  105.3313  103.4961 H        35        0    0.0000
    542 C         130.9632  110.0551  102.9815 C.3      36        0    0.0000
    543 C         132.3151  109.4468  103.3280 C.3      36        0    0.0000
    544 C         131.9560  108.0036  103.6964 C.3      36        0    0.0000
    545 C         133.0312  107.2361  104.4719 C.3      36        0    0.0000
    546 C         130.5777  108.0903  104.3807 C.3      36        0    0.0000
    547 C         130.0496  109.5073  104.0828 C.3      36        0    0.0000
    548 C         128.5474  109.6063  103.8006 C.3      36        0    0.0000
    549 H         130.9954  111.1490  102.9802 H        36        0    0.0000
    550 H         130.6525  109.7226  101.9850 H        36        0    0.0000
    551 H         133.0128  109.4950  102.4863 H        36        0    0.0000
    552 H         132.7597  109.9887  104.1700 H        36        0    0.0000
    553 H         131.8057  107.4610  102.7509 H        36        0    0.0000
    554 H         133.6909  107.9534  104.9743 H        36        0    0.0000
    555 H         132.5509  106.6443  105.2602 H        36        0    0.0000
    556 H         130.6302  107.9395  105.4643 H        36        0    0.0000
    557 H         129.9251  107.3019  103.9904 H        36        0    0.0000
    558 H         130.2388  110.1107  104.9835 H        36        0    0.0000
    559 H         127.9947  109.3829  104.7209 H        36        0    0.0000
    560 H         128.3012  110.6395  103.5283 H        36        0    0.0000
    561 C         124.7675  108.8931  100.9450 C.3      37        0    0.0000
    562 C         125.8288  109.6252  101.7700 C.3      37        0    0.0000
    563 C         126.5135  108.5628  102.6485 C.3      37        0    0.0000
    564 C         128.0440  108.6577  102.6716 C.3      37        0    0.0000
    565 C         126.0203  107.2260  102.0854 C.3      37        0    0.0000
    566 C         124.5977  107.5155  101.5946 C.3      37        0    0.0000
    567 C         123.5681  107.5092  102.7405 C.3      37        0    0.0000
    568 H         123.8381  109.4665  100.8761 H        37        0    0.0000
    569 H         125.1425  108.7644   99.9216 H        37        0    0.0000
    570 H         126.5287  110.1433  101.1053 H        37        0    0.0000
    571 H         125.3605  110.3869  102.4043 H        37        0    0.0000
    572 H         126.1298  108.6636  103.6738 H        37        0    0.0000
    573 H         128.4672  107.6603  102.8406 H        37        0    0.0000
    574 H         128.4209  109.0025  101.7018 H        37        0    0.0000
    575 H         126.0578  106.4272  102.8332 H        37        0    0.0000
    576 H         126.6438  106.9154  101.2370 H        37        0    0.0000
    577 H         124.3099  106.7714  100.8410 H        37        0    0.0000
    578 H         123.5545  108.4708  103.2655 H        37        0    0.0000
    579 H         123.8489  106.7477  103.4778 H        37        0    0.0000
    580 C         122.2683  104.3066   99.7650 C.3      38        0    0.0000
    581 C         121.8086  105.7127  100.1185 C.3      38        0    0.0000
    582 C         121.9788  105.7732  101.6418 C.3      38        0    0.0000
    583 C         122.1356  107.1820  102.2280 C.3      38        0    0.0000
    584 C         123.1182  104.7877  101.9736 C.3      38        0    0.0000
    585 C         123.5084  104.1209  100.6418 C.3      38        0    0.0000
    586 C         123.9183  102.6507  100.7579 C.3      38        0    0.0000
    587 H         121.4900  103.5771  100.0205 H        38        0    0.0000
    588 H         122.4960  104.2058   98.6994 H        38        0    0.0000
    589 H         122.4396  106.4446   99.6029 H        38        0    0.0000
    590 H         120.7722  105.8920   99.8155 H        38        0    0.0000
    591 H         121.0628  105.3541  102.0842 H        38        0    0.0000
    592 H         121.8598  107.9182  101.4635 H        38        0    0.0000
    593 H         121.4261  107.3071  103.0546 H        38        0    0.0000
    594 H         122.7509  104.0475  102.6953 H        38        0    0.0000
    595 H         123.9863  105.2732  102.4318 H        38        0    0.0000
    596 H         124.3332  104.6975  100.1982 H        38        0    0.0000
    597 H         124.5294  102.3592   99.8954 H        38        0    0.0000
    598 H         124.5460  102.5187  101.6472 H        38        0    0.0000
    599 C         122.7149   99.2051   97.9951 C.3      39        0    0.0000
    600 C         123.0410  100.5841   98.5515 C.3      39        0    0.0000
    601 C         122.8346  100.4020  100.0588 C.3      39        0    0.0000
    602 C         122.6951  101.6972  100.8645 C.3      39        0    0.0000
    603 C         121.6641   99.4081  100.1908 C.3      39        0    0.0000
    604 C         121.4660   98.8038   98.7869 C.3      39        0    0.0000
    605 C         121.1170   97.3127   98.7530 C.3      39        0    0.0000
    606 H         122.5272   99.2331   96.9173 H        39        0    0.0000
    607 H         123.5543   98.5248   98.1768 H        39        0    0.0000
    608 H         124.0636  100.8907   98.3106 H        39        0    0.0000
    609 H         122.3548  101.3257   98.1281 H        39        0    0.0000
    610 H         123.7292   99.8895  100.4436 H        39        0    0.0000
    611 H         121.8000  102.2336  100.5279 H        39        0    0.0000
    612 H         122.5344  101.4473  101.9199 H        39        0    0.0000
    613 H         120.7345   99.8861  100.5180 H        39        0    0.0000
    614 H         121.9071   98.6549  100.9481 H        39        0    0.0000
    615 H         120.6159   99.3341   98.3318 H        39        0    0.0000
    616 H         120.7947   97.0434   97.7401 H        39        0    0.0000
    617 H         122.0209   96.7283   98.9617 H        39        0    0.0000
    618 C         118.9547   93.5186  100.8954 C.3      40        0    0.0000
    619 C         120.1134   94.4020  100.4266 C.3      40        0    0.0000
    620 C         119.5065   95.4664   99.4949 C.3      40        0    0.0000
    621 C         120.0052   96.8922   99.7605 C.3      40        0    0.0000
    622 C         117.9936   95.3308   99.6947 C.3      40        0    0.0000
    623 C         117.7733   93.8401   99.9735 C.3      40        0    0.0000
    624 C         117.7640   92.9964   98.6847 C.3      40        0    0.0000
    625 H         119.2292   92.4596  100.9083 H        40        0    0.0000
    626 H         118.6934   93.7957  101.9248 H        40        0    0.0000
    627 H         120.6273   94.8363  101.2912 H        40        0    0.0000
    628 H         120.8509   93.8045   99.8781 H        40        0    0.0000
    629 H         119.7398   95.1896   98.4568 H        40        0    0.0000
    630 H         119.1674   97.5933   99.6668 H        40        0    0.0000
    631 H         120.3811   96.9815  100.7863 H        40        0    0.0000
    632 H         117.4316   95.6885   98.8258 H        40        0    0.0000
    633 H         117.6689   95.9174  100.5638 H        40        0    0.0000
    634 H         116.8245   93.7020  100.5073 H        40        0    0.0000
    635 H         118.6950   93.1242   98.1213 H        40        0    0.0000
    636 H         116.9489   93.3349   98.0340 H        40        0    0.0000
    637 C         117.8890   89.2206   96.0650 C.3      41        0    0.0000
    638 C         117.9325   90.6650   96.5696 C.3      41        0    0.0000
    639 C         116.9756   90.7398   97.7730 C.3      41        0    0.0000
    640 C         117.5476   91.4849   98.9854 C.3      41        0    0.0000
    641 C         116.6450   89.2777   98.0895 C.3      41        0    0.0000
    642 C         116.6684   88.5736   96.7286 C.3      41        0    0.0000
    643 C         115.3649   88.7849   95.9353 C.3      41        0    0.0000
    644 H         117.8754   89.1712   94.9721 H        41        0    0.0000
    645 H         118.7970   88.7023   96.3991 H        41        0    0.0000
    646 H         118.9611   90.9417   96.8259 H        41        0    0.0000
    647 H         117.5978   91.3535   95.7849 H        41        0    0.0000
    648 H         116.0503   91.2362   97.4476 H        41        0    0.0000
    649 H         116.8525   91.3939   99.8286 H        41        0    0.0000
    650 H         118.4933   91.0307   99.3028 H        41        0    0.0000
    651 H         115.6839   89.1768   98.6041 H        41        0    0.0000
    652 H         117.4161   88.8438   98.7393 H        41        0    0.0000
    653 H         116.8379   87.4990   96.8732 H        41        0    0.0000
    654 H         115.5664   88.8888   94.8634 H        41        0    0.0000
    655 H         114.8874   89.7165   96.2614 H        41        0    0.0000
    656 C         113.8802   84.3550   94.5517 C.3      42        0    0.0000
    657 C         114.3038   85.8104   94.3598 C.3      42        0    0.0000
    658 C         114.9185   86.2703   95.6931 C.3      42        0    0.0000
    659 C         114.3573   87.6202   96.1592 C.3      42        0    0.0000
    660 C         114.6523   85.1119   96.6666 C.3      42        0    0.0000
    661 C         114.6327   83.8549   95.7876 C.3      42        0    0.0000
    662 C         116.0289   83.3161   95.4262 C.3      42        0    0.0000
    663 H         112.8009   84.3226   94.7483 H        42        0    0.0000
    664 H         114.0641   83.7515   93.6574 H        42        0    0.0000
    665 H         113.4471   86.4202   94.0523 H        42        0    0.0000
    666 H         115.0542   85.8849   93.5639 H        42        0    0.0000
    667 H         116.0041   86.3646   95.5489 H        42        0    0.0000
    668 H         114.0788   87.5716   97.2183 H        42        0    0.0000
    669 H         113.4403   87.8433   95.6007 H        42        0    0.0000
    670 H         115.3999   85.0665   97.4646 H        42        0    0.0000
    671 H         113.6705   85.2323   97.1427 H        42        0    0.0000
    672 H         114.0540   83.0607   96.2763 H        42        0    0.0000
    673 H         116.7774   83.6254   96.1636 H        42        0    0.0000
    674 H         116.3421   83.7413   94.4649 H        42        0    0.0000
    675 C         116.0405   81.7669   95.2929 C.3      43        0    0.0000
    676 C         117.1264   81.0768   96.1308 C.3      43        0    0.0000
    677 H         115.0629   81.4115   95.6432 H        43        0    0.0000
    678 H         116.1149   81.4876   94.2354 H        43        0    0.0000
    679 H         117.5340   80.2012   95.6121 H        43        0    0.0000
    680 H         117.9580   81.7817   96.2575 H        43        0    0.0000
    681 C         113.8089   78.4062   96.4648 C.3      44        0    0.0000
    682 C         115.2520   78.8739   96.3374 C.3      44        0    0.0000
    683 C         115.4461   79.7293   97.5937 C.3      44        0    0.0000
    684 C         116.6568   80.6674   97.5697 C.3      44        0    0.0000
    685 C         114.0841   80.4084   97.8366 C.3      44        0    0.0000
    686 C         113.0796   79.6709   96.9297 C.3      44        0    0.0000
    687 C         111.6893   79.4444   97.5316 C.3      44        0    0.0000
    688 H         113.4157   78.0303   95.5152 H        44        0    0.0000
    689 H         113.7454   77.5990   97.2028 H        44        0    0.0000
    690 H         115.9522   78.0337   96.2997 H        44        0    0.0000
    691 H         115.3718   79.4582   95.4184 H        44        0    0.0000
    692 H         115.6063   79.0339   98.4314 H        44        0    0.0000
    693 H         116.4165   81.5764   98.1338 H        44        0    0.0000
    694 H         117.4936   80.1860   98.0896 H        44        0    0.0000
    695 H         114.0892   81.4747   97.5859 H        44        0    0.0000
    696 H         113.8265   80.3423   98.8992 H        44        0    0.0000
    697 H         112.9356   80.3016   96.0394 H        44        0    0.0000
    698 H         111.0556   78.9434   96.7902 H        44        0    0.0000
    699 H         111.7752   78.7619   98.3853 H        44        0    0.0000
    700 C         112.6253   83.9019   99.2478 C.3      45        0    0.0000
    701 C         111.3827   83.1344   98.7890 C.3      45        0    0.0000
    702 C         111.8889   81.9732   97.9232 C.3      45        0    0.0000
    703 C         110.9752   80.7470   98.0020 C.3      45        0    0.0000
    704 C         113.3113   81.7442   98.4451 C.3      45        0    0.0000
    705 C         113.8307   83.1725   98.6402 C.3      45        0    0.0000
    706 C         115.0806   83.2827   99.5178 C.3      45        0    0.0000
    707 H         112.5933   84.9470   98.9216 H        45        0    0.0000
    708 H         112.6686   83.9048  100.3436 H        45        0    0.0000
    709 H         110.7010   83.7783   98.2228 H        45        0    0.0000
    710 H         110.8334   82.7713   99.6659 H        45        0    0.0000
    711 H         111.9493   82.3229   96.8823 H        45        0    0.0000
    712 H         110.0950   80.9103   97.3688 H        45        0    0.0000
    713 H         110.6073   80.6121   99.0259 H        45        0    0.0000
    714 H         113.9224   81.1805   97.7330 H        45        0    0.0000
    715 H         113.2975   81.1977   99.3965 H        45        0    0.0000
    716 H         114.0333   83.6101   97.6518 H        45        0    0.0000
    717 H         115.6053   82.3208   99.5546 H        45        0    0.0000
    718 H         114.7813   83.5191  100.5459 H        45        0    0.0000
    719 C         119.2769   82.5918   98.1481 C.3      46        0    0.0000
    720 C         117.8251   82.5391   98.5989 C.3      46        0    0.0000
    721 C         117.5349   83.9786   99.0423 C.3      46        0    0.0000
    722 C         116.0559   84.3850   99.0213 C.3      46        0    0.0000
    723 C         118.4782   84.8700   98.2086 C.3      46        0    0.0000
    724 C         119.3482   83.9108   97.3758 C.3      46        0    0.0000
    725 C         120.7903   84.3770   97.1617 C.3      46        0    0.0000
    726 H         119.9444   82.6060   99.0182 H        46        0    0.0000
    727 H         119.5439   81.7326   97.5252 H        46        0    0.0000
    728 H         117.1923   82.2296   97.7601 H        46        0    0.0000
    729 H         117.6759   81.8226   99.4128 H        46        0    0.0000
    730 H         117.8648   84.0651  100.0884 H        46        0    0.0000
    731 H         115.9234   85.2774   99.6446 H        46        0    0.0000
    732 H         115.7775   84.6711   98.0001 H        46        0    0.0000
    733 H         119.0924   85.4735   98.8886 H        46        0    0.0000
    734 H         117.9439   85.5706   97.5583 H        46        0    0.0000
    735 H         118.8613   83.7654   96.4005 H        46        0    0.0000
    736 H         121.3044   83.7073   96.4621 H        46        0    0.0000
    737 H         120.7848   85.3711   96.6991 H        46        0    0.0000
    738 C         122.5689   80.8814   99.3695 C.3      47        0    0.0000
    739 C         121.6871   81.8628   98.6100 C.3      47        0    0.0000
    740 C         122.4229   83.1945   98.7915 C.3      47        0    0.0000
    741 C         121.5971   84.4485   98.4885 C.3      47        0    0.0000
    742 C         123.0381   83.1290  100.2031 C.3      47        0    0.0000
    743 C         122.9244   81.6562  100.6427 C.3      47        0    0.0000
    744 C         124.1165   81.1092  101.4339 C.3      47        0    0.0000
    745 H         122.0444   79.9466   99.5900 H        47        0    0.0000
    746 H         123.4553   80.6415   98.7720 H        47        0    0.0000
    747 H         121.5857   81.5894   97.5552 H        47        0    0.0000
    748 H         120.6859   81.8812   99.0545 H        47        0    0.0000
    749 H         123.2628   83.1942   98.0805 H        47        0    0.0000
    750 H         120.8997   84.6263   99.3157 H        47        0    0.0000
    751 H         122.2656   85.3166   98.4479 H        47        0    0.0000
    752 H         122.5172   83.7676  100.9246 H        47        0    0.0000
    753 H         124.0737   83.4840  100.1678 H        47        0    0.0000
    754 H         122.0511   81.5920  101.3094 H        47        0    0.0000
    755 H         123.7445   80.5402  102.2941 H        47        0    0.0000
    756 H         124.6705   80.4026  100.8046 H        47        0    0.0000
    757 C         128.5893   80.7886  102.3800 C.3      48        0    0.0000
    758 C         127.2016   80.6950  101.7643 C.3      48        0    0.0000
    759 C         126.3638   81.6524  102.6213 C.3      48        0    0.0000
    760 C         125.1017   82.2029  101.9452 C.3      48        0    0.0000
    761 C         127.3512   82.7155  103.1454 C.3      48        0    0.0000
    762 C         128.7443   82.2867  102.6495 C.3      48        0    0.0000
    763 C         129.8890   82.5828  103.6216 C.3      48        0    0.0000
    764 H         128.6307   80.2123  103.3123 H        48        0    0.0000
    765 H         129.3629   80.4070  101.7066 H        48        0    0.0000
    766 H         127.2444   81.0091  100.7158 H        48        0    0.0000
    767 H         126.8105   79.6731  101.7918 H        48        0    0.0000
    768 H         126.0218   81.0827  103.4982 H        48        0    0.0000
    769 H         124.5712   82.8490  102.6547 H        48        0    0.0000
    770 H         125.3955   82.8381  101.1011 H        48        0    0.0000
    771 H         127.3081   82.7327  104.2416 H        48        0    0.0000
    772 H         127.1137   83.7282  102.8030 H        48        0    0.0000
    773 H         128.9374   82.7908  101.6913 H        48        0    0.0000
    774 H         130.0460   81.7297  104.2922 H        48        0    0.0000
    775 H         130.8194   82.7141  103.0565 H        48        0    0.0000
    776 C         132.4316   85.4082  103.7163 C.3      49        0    0.0000
    777 C         132.1640   84.0828  104.4345 C.3      49        0    0.0000
    778 C         130.8884   84.2831  105.2602 C.3      49        0    0.0000
    779 C         129.6357   83.8608  104.4696 C.3      49        0    0.0000
    780 C         130.9541   85.7786  105.5951 C.3      49        0    0.0000
    781 C         131.4501   86.4355  104.3044 C.3      49        0    0.0000
    782 C         132.0546   87.8224  104.5510 C.3      49        0    0.0000
    783 H         133.4783   85.7008  103.8577 H        49        0    0.0000
    784 H         132.2672   85.3022  102.6379 H        49        0    0.0000
    785 H         133.0028   83.8709  105.1096 H        49        0    0.0000
    786 H         132.0975   83.2442  103.7338 H        49        0    0.0000
    787 H         130.9448   83.6893  106.1816 H        49        0    0.0000
    788 H         129.3476   84.6725  103.7906 H        49        0    0.0000
    789 H         128.7829   83.6938  105.1362 H        49        0    0.0000
    790 H         131.6776   85.9380  106.4053 H        49        0    0.0000
    791 H         129.9976   86.1962  105.9234 H        49        0    0.0000
    792 H         130.5988   86.5340  103.6162 H        49        0    0.0000
    793 H         131.6092   88.5587  103.8719 H        49        0    0.0000
    794 H         133.1284   87.7958  104.3312 H        49        0    0.0000
    795 C         131.8573   88.2861  106.0228 C.3      50        0    0.0000
    796 C         130.3871   88.4545  106.4322 C.3      50        0    0.0000
    797 H         132.3020   87.5119  106.6612 H        50        0    0.0000
    798 H         132.4285   89.2049  106.2004 H        50        0    0.0000
    799 H         130.2565   89.3076  107.1082 H        50        0    0.0000
    800 H         129.8056   88.6783  105.5286 H        50        0    0.0000
    801 C         130.4496   85.2450  110.2592 C.3      51        0    0.0000
    802 C         129.5706   86.2022  109.4688 C.3      51        0    0.0000
    803 C         130.4807   86.6610  108.3225 C.3      51        0    0.0000
    804 C         129.7530   87.1711  107.0722 C.3      51        0    0.0000
    805 C         131.4700   85.5014  108.0856 C.3      51        0    0.0000
    806 C         131.1589   84.4468  109.1634 C.3      51        0    0.0000
    807 C         132.3816   83.6958  109.6961 C.3      51        0    0.0000
    808 H         131.1686   85.8055  110.8691 H        51        0    0.0000
    809 H         129.8626   84.6040  110.9240 H        51        0    0.0000
    810 H         128.6847   85.6702  109.1053 H        51        0    0.0000
    811 H         129.2286   87.0427  110.0808 H        51        0    0.0000
    812 H         131.0737   87.5066  108.7020 H        51        0    0.0000
    813 H         129.7383   86.3742  106.3192 H        51        0    0.0000
    814 H         128.7075   87.3816  107.3270 H        51        0    0.0000
    815 H         132.4947   85.8806  108.1855 H        51        0    0.0000
    816 H         131.3896   85.0660  107.0841 H        51        0    0.0000
    817 H         130.4415   83.7274  108.7423 H        51        0    0.0000
    818 H         132.5291   83.9192  110.7593 H        51        0    0.0000
    819 H         132.2038   82.6162  109.6232 H        51        0    0.0000
    820 C         134.3144   87.2492  108.6203 C.3      52        0    0.0000
    821 C         133.0241   86.4459  108.4358 C.3      52        0    0.0000
    822 C         133.4307   85.1004  107.8250 C.3      52        0    0.0000
    823 C         133.6806   84.0414  108.9152 C.3      52        0    0.0000
    824 C         134.6743   85.4799  107.0110 C.3      52        0    0.0000
    825 C         135.4287   86.4654  107.9070 C.3      52        0    0.0000
    826 C         136.4121   87.3364  107.1172 C.3      52        0    0.0000
    827 H         134.1842   88.2575  108.2112 H        52        0    0.0000
    828 H         134.5511   87.3591  109.6848 H        52        0    0.0000
    829 H         132.3724   86.9805  107.7331 H        52        0    0.0000
    830 H         132.4684   86.3441  109.3735 H        52        0    0.0000
    831 H         132.6387   84.7416  107.1551 H        52        0    0.0000
    832 H         134.4188   84.4265  109.6291 H        52        0    0.0000
    833 H         134.1056   83.1260  108.4899 H        52        0    0.0000
    834 H         134.3631   85.9730  106.0808 H        52        0    0.0000
    835 H         135.2954   84.6225  106.7350 H        52        0    0.0000
    836 H         135.9856   85.8919  108.6613 H        52        0    0.0000
    837 H         137.0936   87.8572  107.8000 H        52        0    0.0000
    838 H         135.8572   88.1086  106.5714 H        52        0    0.0000
    839 C         137.2367   86.4992  106.0977 C.3      53        0    0.0000
    840 C         138.7506   86.5202  106.3529 C.3      53        0    0.0000
    841 H         137.0522   86.9348  105.1074 H        53        0    0.0000
    842 H         136.8519   85.4731  106.0654 H        53        0    0.0000
    843 H         139.2450   86.8733  105.4388 H        53        0    0.0000
    844 H         139.0117   87.2316  107.1451 H        53        0    0.0000
    845 C         139.3236   83.0545  103.5221 C.3      54        0    0.0000
    846 C         139.4494   84.3827  104.2527 C.3      54        0    0.0000
    847 C         138.9601   84.0458  105.6628 C.3      54        0    0.0000
    848 C         139.3606   85.1141  106.6832 C.3      54        0    0.0000
    849 C         139.5474   82.6478  105.9298 C.3      54        0    0.0000
    850 C         139.8364   82.0328  104.5449 C.3      54        0    0.0000
    851 C         139.3348   80.5970  104.3448 C.3      54        0    0.0000
    852 H         139.9113   83.0389  102.5988 H        54        0    0.0000
    853 H         138.2755   82.8814  103.2550 H        54        0    0.0000
    854 H         140.4956   84.7118  104.2648 H        54        0    0.0000
    855 H         138.8487   85.1672  103.7826 H        54        0    0.0000
    856 H         137.8642   83.9579  105.6350 H        54        0    0.0000
    857 H         139.0476   84.8120  107.6897 H        54        0    0.0000
    858 H         140.4535   85.2012  106.7065 H        54        0    0.0000
    859 H         140.4860   82.7129  106.4942 H        54        0    0.0000
    860 H         138.8571   82.0469  106.5311 H        54        0    0.0000
    861 H         140.9311   81.9955  104.4406 H        54        0    0.0000
    862 H         139.1475   80.4285  103.2777 H        54        0    0.0000
    863 H         138.3707   80.4827  104.8546 H        54        0    0.0000
    864 C         142.7383   79.3374  107.7650 C.3      55        0    0.0000
    865 C         141.4210   78.9175  107.1308 C.3      55        0    0.0000
    866 C         141.2151   79.9498  106.0151 C.3      55        0    0.0000
    867 C         140.3062   79.4987  104.8648 C.3      55        0    0.0000
    868 C         142.6299   80.4047  105.6015 C.3      55        0    0.0000
    869 C         143.6049   79.6888  106.5540 C.3      55        0    0.0000
    870 C         144.8368   80.5092  106.9444 C.3      55        0    0.0000
    871 H         142.5874   80.2111  108.4107 H        55        0    0.0000
    872 H         143.1760   78.5365  108.3687 H        55        0    0.0000
    873 H         141.5116   77.8985  106.7393 H        55        0    0.0000
    874 H         140.5987   78.9266  107.8531 H        55        0    0.0000
    875 H         140.7259   80.8231  106.4719 H        55        0    0.0000
    876 H         140.9309   79.1591  104.0300 H        55        0    0.0000
    877 H         139.7193   78.6317  105.1907 H        55        0    0.0000
    878 H         142.6996   81.4945  105.7078 H        55        0    0.0000
    879 H         142.8680   80.1723  104.5582 H        55        0    0.0000
    880 H         143.9252   78.7515  106.0761 H        55        0    0.0000
    881 H         144.9508   80.5248  108.0348 H        55        0    0.0000
    882 H         145.7355   80.0277  106.5410 H        55        0    0.0000
    883 C         144.7729   81.9696  106.4153 C.3      56        0    0.0000
    884 C         146.0157   82.8081  106.7468 C.3      56        0    0.0000
    885 H         143.9057   82.4423  106.8939 H        56        0    0.0000
    886 H         144.5716   81.9636  105.3377 H        56        0    0.0000
    887 H         146.4384   83.1777  105.8038 H        56        0    0.0000
    888 H         145.7539   83.6918  107.3405 H        56        0    0.0000
    889 C         148.7228   84.9612  109.0697 C.3      57        0    0.0000
    890 C         148.0495   84.3985  107.8155 C.3      57        0    0.0000
    891 C         148.3624   82.8917  107.7864 C.3      57        0    0.0000
    892 C         147.1525   82.0045  107.4683 C.3      57        0    0.0000
    893 C         148.9541   82.5977  109.1687 C.3      57        0    0.0000
    894 C         149.6984   83.8817  109.5507 C.3      57        0    0.0000
    895 C         151.0842   83.9777  108.8847 C.3      57        0    0.0000
    896 H         149.1949   85.9297  108.8788 H        57        0    0.0000
    897 H         147.9571   85.1228  109.8393 H        57        0    0.0000
    898 H         146.9747   84.6096  107.8404 H        57        0    0.0000
    899 H         148.4533   84.8798  106.9172 H        57        0    0.0000
    900 H         149.1461   82.7167  107.0355 H        57        0    0.0000
    901 H         147.4669   81.1827  106.8139 H        57        0    0.0000
    902 H         146.7604   81.5487  108.3847 H        57        0    0.0000
    903 H         149.6040   81.7167  109.1577 H        57        0    0.0000
    904 H         148.1528   82.4095  109.8950 H        57        0    0.0000
    905 H         149.8131   83.9299  110.6411 H        57        0    0.0000
    906 H         151.2823   84.9947  108.5284 H        57        0    0.0000
    907 H         151.1122   83.3214  108.0068 H        57        0    0.0000
    908 C         152.2217   83.5405  109.8526 C.3      58        0    0.0000
    909 C         153.0389   82.3405  109.3532 C.3      58        0    0.0000
    910 H         152.9005   84.3973  109.9512 H        58        0    0.0000
    911 H         151.8066   83.3532  110.8499 H        58        0    0.0000
    912 H         152.4043   81.6157  108.8299 H        58        0    0.0000
    913 H         153.7678   82.7068  108.6189 H        58        0    0.0000
    914 C         152.8013   81.7388  113.5842 C.3      59        0    0.0000
    915 C         152.8501   82.8012  112.4827 C.3      59        0    0.0000
    916 C         154.1280   82.5383  111.6785 C.3      59        0    0.0000
    917 C         153.8552   81.6134  110.4773 C.3      59        0    0.0000
    918 C         155.0593   81.9413  112.7412 C.3      59        0    0.0000
    919 C         154.1571   81.0137  113.5591 C.3      59        0    0.0000
    920 C         154.7387   80.7066  114.9437 C.3      59        0    0.0000
    921 H         152.5998   82.2162  114.5499 H        59        0    0.0000
    922 H         151.9884   81.0276  113.3979 H        59        0    0.0000
    923 H         152.9138   83.7921  112.9500 H        59        0    0.0000
    924 H         151.9442   82.7948  111.8681 H        59        0    0.0000
    925 H         154.5380   83.4877  111.3108 H        59        0    0.0000
    926 H         153.2767   80.7450  110.8153 H        59        0    0.0000
    927 H         154.7879   81.2226  110.0568 H        59        0    0.0000
    928 H         155.4507   82.7475  113.3755 H        59        0    0.0000
    929 H         155.9180   81.4087  112.3216 H        59        0    0.0000
    930 H         154.0356   80.0719  113.0057 H        59        0    0.0000
    931 H         154.6602   79.6350  115.1611 H        59        0    0.0000
    932 H         154.1532   81.2300  115.7087 H        59        0    0.0000
    933 C         157.0637   83.7716  112.4529 C.3      60        0    0.0000
    934 C         156.0261   83.0211  113.2737 C.3      60        0    0.0000
    935 C         156.7933   81.7964  113.7881 C.3      60        0    0.0000
    936 C         156.2244   81.1534  115.0593 C.3      60        0    0.0000
    937 C         158.2701   82.2341  113.8717 C.3      60        0    0.0000
    938 C         158.3229   83.6691  113.3161 C.3      60        0    0.0000
    939 C         159.5917   84.0041  112.5280 C.3      60        0    0.0000
    940 H         157.2079   83.2808  111.4827 H        60        0    0.0000
    941 H         156.7697   84.8099  112.2715 H        60        0    0.0000
    942 H         155.6730   83.6603  114.0901 H        60        0    0.0000
    943 H         155.1573   82.7362  112.6719 H        60        0    0.0000
    944 H         156.7377   81.0290  113.0016 H        60        0    0.0000
    945 H         156.8342   80.2800  115.3196 H        60        0    0.0000
    946 H         156.3181   81.8611  115.8914 H        60        0    0.0000
    947 H         158.8794   81.5515  113.2663 H        60        0    0.0000
    948 H         158.6716   82.1988  114.8898 H        60        0    0.0000
    949 H         158.2200   84.3675  114.1594 H        60        0    0.0000
    950 H         159.3671   84.0618  111.4563 H        60        0    0.0000
    951 H         159.9531   84.9951  112.8275 H        60        0    0.0000
    952 C         162.2065   81.6505  115.9681 C.3      61        0    0.0000
    953 C         161.0251   81.8134  115.0081 C.3      61        0    0.0000
    954 C         161.3238   83.0603  114.1654 C.3      61        0    0.0000
    955 C         160.7276   82.9682  112.7581 C.3      61        0    0.0000
    956 C         162.8529   83.1504  114.2065 C.3      61        0    0.0000
    957 C         163.1697   82.8059  115.6655 C.3      61        0    0.0000
    958 C         164.6304   82.4303  115.9297 C.3      61        0    0.0000
    959 H         161.8794   81.6754  117.0132 H        61        0    0.0000
    960 H         162.6822   80.6769  115.7997 H        61        0    0.0000
    961 H         160.0804   81.9235  115.5512 H        61        0    0.0000
    962 H         160.9375   80.9174  114.3819 H        61        0    0.0000
    963 H         160.9068   83.9342  114.6870 H        61        0    0.0000
    964 H         160.3189   81.9624  112.6032 H        61        0    0.0000
    965 H         161.5100   83.1109  112.0035 H        61        0    0.0000
    966 H         163.2112   84.1484  113.9348 H        61        0    0.0000
    967 H         163.3078   82.4223  113.5232 H        61        0    0.0000
    968 H         162.8880   83.6611  116.2970 H        61        0    0.0000
    969 H         164.7771   81.3527  115.7908 H        61        0    0.0000
    970 H         164.8775   82.6507  116.9751 H        61        0    0.0000
    971 C         165.6155   83.2083  115.0148 C.3      62        0    0.0000
    972 C         167.0423   83.3046  115.5737 C.3      62        0    0.0000
    973 H         165.6590   82.6652  114.0620 H        62        0    0.0000
    974 H         165.2067   84.2007  114.7914 H        62        0    0.0000
    975 H         167.0388   83.6162  116.6248 H        62        0    0.0000
    976 H         167.4875   82.3019  115.5452 H        62        0    0.0000
    977 C         170.4745   85.9353  116.8519 C.3      63        0    0.0000
    978 C         169.3975   84.8535  116.7865 C.3      63        0    0.0000
    979 C         169.3995   84.3158  115.3450 C.3      63        0    0.0000
    980 C         167.9882   84.2434  114.7475 C.3      63        0    0.0000
    981 C         170.3555   85.2457  114.5821 C.3      63        0    0.0000
    982 C         171.3718   85.7132  115.6316 C.3      63        0    0.0000
    983 C         172.4903   84.6961  115.9234 C.3      63        0    0.0000
    984 H         169.9945   86.9191  116.7730 H        63        0    0.0000
    985 H         171.0194   85.9168  117.8010 H        63        0    0.0000
    986 H         168.4268   85.2623  117.0878 H        63        0    0.0000
    987 H         169.6345   84.0403  117.4826 H        63        0    0.0000
    988 H         169.8329   83.3058  115.3627 H        63        0    0.0000
    989 H         168.0321   83.9002  113.7073 H        63        0    0.0000
    990 H         167.5501   85.2487  114.7308 H        63        0    0.0000
    991 H         170.8202   84.7448  113.7272 H        63        0    0.0000
    992 H         169.8114   86.1176  114.1960 H        63        0    0.0000
    993 H         171.8211   86.6664  115.3248 H        63        0    0.0000
    994 H         172.6416   84.0181  115.0767 H        63        0    0.0000
    995 H         172.1968   84.0718  116.7760 H        63        0    0.0000
    996 C         176.5472   84.0963  113.9997 C.3      64        0    0.0000
    997 C         175.0719   84.2090  114.3928 C.3      64        0    0.0000
    998 C         175.0496   84.5450  115.8897 C.3      64        0    0.0000
    999 C         173.8347   85.3923  116.2779 C.3      64        0    0.0000
   1000 C         176.4026   85.2285  116.1134 C.3      64        0    0.0000
   1001 C         177.3549   84.3689  115.2755 C.3      64        0    0.0000
   1002 C         178.7087   85.0200  114.9793 C.3      64        0    0.0000
   1003 H         176.7784   83.1061  113.5925 H        64        0    0.0000
   1004 H         176.7735   84.8303  113.2170 H        64        0    0.0000
   1005 H         174.5318   83.2777  114.1912 H        64        0    0.0000
   1006 H         174.5947   84.9967  113.7975 H        64        0    0.0000
   1007 H         175.0364   83.6003  116.4527 H        64        0    0.0000
   1008 H         173.8798   86.3527  115.7505 H        64        0    0.0000
   1009 H         173.8564   85.6193  117.3502 H        64        0    0.0000
   1010 H         176.6852   85.2398  117.1709 H        64        0    0.0000
   1011 H         176.3848   86.2636  115.7498 H        64        0    0.0000
   1012 H         177.5106   83.4113  115.7935 H        64        0    0.0000
   1013 H         179.5092   84.2726  115.0292 H        64        0    0.0000
   1014 H         178.9267   85.7686  115.7504 H        64        0    0.0000
   1015 C         178.7381   85.7173  113.5916 C.3      65        0    0.0000
   1016 C         180.1280   85.7514  112.9399 C.3      65        0    0.0000
   1017 H         178.4110   86.7528  113.7504 H        65        0    0.0000
   1018 H         177.9983   85.2530  112.9291 H        65        0    0.0000
   1019 H         180.1845   86.6450  112.3052 H        65        0    0.0000
   1020 H         180.9190   85.8510  113.6925 H        65        0    0.0000
   1021 C         183.9721   83.5311  112.5068 C.3      66        0    0.0000
   1022 C         182.9041   84.6023  112.7405 C.3      66        0    0.0000
   1023 C         181.8991   84.4822  111.5808 C.3      66        0    0.0000
   1024 C         180.4291   84.5205  112.0165 C.3      66        0    0.0000
   1025 C         182.2687   83.1656  110.8900 C.3      66        0    0.0000
   1026 C         183.7872   83.0523  111.0628 C.3      66        0    0.0000
   1027 C         184.5602   83.9047  110.0386 C.3      66        0    0.0000
   1028 H         184.9776   83.9045  112.7229 H        66        0    0.0000
   1029 H         183.7868   82.6926  113.1903 H        66        0    0.0000
   1030 H         182.4396   84.4607  113.7226 H        66        0    0.0000
   1031 H         183.3577   85.6004  112.7377 H        66        0    0.0000
   1032 H         182.0879   85.3030  110.8743 H        66        0    0.0000
   1033 H         179.7888   84.5865  111.1288 H        66        0    0.0000
   1034 H         180.1590   83.5931  112.5347 H        66        0    0.0000
   1035 H         181.9580   83.1519  109.8403 H        66        0    0.0000
   1036 H         181.7794   82.3205  111.3915 H        66        0    0.0000
   1037 H         184.0910   82.0022  110.9674 H        66        0    0.0000
   1038 H         185.4297   84.3857  110.5000 H        66        0    0.0000
   1039 H         183.9108   84.7073  109.6691 H        66        0    0.0000
   1040 C         183.0628   80.0911  107.9203 C.3      67        0    0.0000
   1041 C         183.2029   81.2743  108.8768 C.3      67        0    0.0000
   1042 C         183.8491   82.4165  108.0738 C.3      67        0    0.0000
   1043 C         185.0268   83.0591  108.8183 C.3      67        0    0.0000
   1044 C         184.2309   81.7811  106.7280 C.3      67        0    0.0000
   1045 C         183.1964   80.6698  106.5093 C.3      67        0    0.0000
   1046 C         181.8439   81.1652  105.9654 C.3      67        0    0.0000
   1047 H         183.8862   79.3885  108.1019 H        67        0    0.0000
   1048 H         182.1290   79.5424  108.0783 H        67        0    0.0000
   1049 H         183.7889   80.9868  109.7567 H        67        0    0.0000
   1050 H         182.2163   81.5898  109.2362 H        67        0    0.0000
   1051 H         183.0791   83.1802  107.8949 H        67        0    0.0000
   1052 H         185.6116   83.6871  108.1361 H        67        0    0.0000
   1053 H         185.6998   82.2721  109.1793 H        67        0    0.0000
   1054 H         184.2495   82.5163  105.9177 H        67        0    0.0000
   1055 H         185.2314   81.3332  106.7884 H        67        0    0.0000
   1056 H         183.5998   79.9053  105.8330 H        67        0    0.0000
   1057 H         181.3661   81.8615  106.6630 H        67        0    0.0000
   1058 H         181.1632   80.3118  105.8593 H        67        0    0.0000
   1059 C         181.9870   81.8418  104.5728 C.3      68        0    0.0000
   1060 C         181.0758   81.2430  103.4917 C.3      68        0    0.0000
   1061 H         181.7128   82.8965  104.7032 H        68        0    0.0000
   1062 H         183.0381   81.8274  104.2613 H        68        0    0.0000
   1063 H         180.5472   80.3566  103.8617 H        68        0    0.0000
   1064 H         180.3071   81.9863  103.2444 H        68        0    0.0000
   1065 C         183.1542   78.2694  100.7083 C.3      69        0    0.0000
   1066 C         182.8038   78.5578  102.1706 C.3      69        0    0.0000
   1067 C         183.0789   80.0479  102.4001 C.3      69        0    0.0000
   1068 C         181.8170   80.8963  102.1541 C.3      69        0    0.0000
   1069 C         184.2268   80.3175  101.4188 C.3      69        0    0.0000
   1070 C         183.8457   79.5299  100.1628 C.3      69        0    0.0000
   1071 C         185.0531   79.2516   99.2603 C.3      69        0    0.0000
   1072 H         183.7946   77.3820  100.6494 H        69        0    0.0000
   1073 H         182.2482   78.0546  100.1301 H        69        0    0.0000
   1074 H         183.4637   77.9641  102.8159 H        69        0    0.0000
   1075 H         181.7759   78.2666  102.4098 H        69        0    0.0000
   1076 H         183.4206   80.2086  103.4307 H        69        0    0.0000
   1077 H         181.1255   80.3360  101.5131 H        69        0    0.0000
   1078 H         182.0581   81.8214  101.6197 H        69        0    0.0000
   1079 H         185.1637   79.9306  101.8406 H        69        0    0.0000
   1080 H         184.3786   81.3794  101.2036 H        69        0    0.0000
   1081 H         183.1051   80.1141   99.5986 H        69        0    0.0000
   1082 H         184.8767   78.3564   98.6527 H        69        0    0.0000
   1083 H         185.9325   79.0458   99.8820 H        69        0    0.0000
   1084 C         188.2573   79.5559   96.0288 C.3      70        0    0.0000
   1085 C         187.5200   79.3952   97.3508 C.3      70        0    0.0000
   1086 C         186.1829   80.0942   97.0835 C.3      70        0    0.0000
   1087 C         185.3702   80.4575   98.3300 C.3      70        0    0.0000
   1088 C         186.5198   81.2688   96.1443 C.3      70        0    0.0000
   1089 C         187.9532   81.0069   95.6420 C.3      70        0    0.0000
   1090 C         188.2149   81.3652   94.1759 C.3      70        0    0.0000
   1091 H         189.3315   79.3752   96.1351 H        70        0    0.0000
   1092 H         187.8633   78.8428   95.2963 H        70        0    0.0000
   1093 H         187.3873   78.3427   97.6196 H        70        0    0.0000
   1094 H         188.0866   79.8821   98.1521 H        70        0    0.0000
   1095 H         185.5665   79.3918   96.5024 H        70        0    0.0000
   1096 H         185.9173   81.2128   98.9065 H        70        0    0.0000
   1097 H         184.4261   80.9208   98.0198 H        70        0    0.0000
   1098 H         186.4802   82.2410   96.6473 H        70        0    0.0000
   1099 H         185.7853   81.3109   95.3328 H        70        0    0.0000
   1100 H         188.6198   81.6436   96.2430 H        70        0    0.0000
   1101 H         187.2559   81.5334   93.6717 H        70        0    0.0000
   1102 H         188.7647   82.3128   94.1312 H        70        0    0.0000
   1103 C         189.0134   80.2855   93.3855 C.3      71        0    0.0000
   1104 C         190.4727   80.6707   93.1037 C.3      71        0    0.0000
   1105 H         188.5033   80.1561   92.4224 H        71        0    0.0000
   1106 H         188.9483   79.3230   93.9063 H        71        0    0.0000
   1107 H         190.5580   80.9259   92.0396 H        71        0    0.0000
   1108 H         190.7645   81.5660   93.6651 H        71        0    0.0000
   1109 C         191.5000   79.5178   93.3763 C.3      72        0    0.0000
   1110 C         192.9638   79.9187   93.1440 C.3      72        0    0.0000
   1111 H         191.2553   78.7045   92.6812 H        72        0    0.0000
   1112 H         191.3506   79.1215   94.3875 H        72        0    0.0000
   1113 H         193.0880   80.1516   92.0787 H        72        0    0.0000
   1114 H         193.2201   80.8306   93.6960 H        72        0    0.0000
   1115 C         191.1138   76.6188   94.5869 C.3      73        0    0.0000
   1116 C         192.0781   77.7837   94.8249 C.3      73        0    0.0000
   1117 C         193.3148   77.5024   93.9614 C.3      73        0    0.0000
   1118 C         193.9956   78.7879   93.4834 C.3      73        0    0.0000
   1119 C         192.7620   76.6174   92.8393 C.3      73        0    0.0000
   1120 C         191.8079   75.6820   93.5895 C.3      73        0    0.0000
   1121 C         190.8097   74.9392   92.6971 C.3      73        0    0.0000
   1122 H         190.8804   76.0953   95.5203 H        73        0    0.0000
   1123 H         190.1687   77.0035   94.1851 H        73        0    0.0000
   1124 H         192.3489   77.8693   95.8828 H        73        0    0.0000
   1125 H         191.5929   78.7240   94.5367 H        73        0    0.0000
   1126 H         194.0224   76.9096   94.5592 H        73        0    0.0000
   1127 H         194.5852   78.5724   92.5843 H        73        0    0.0000
   1128 H         194.6983   79.1510   94.2426 H        73        0    0.0000
   1129 H         193.5553   76.0657   92.3250 H        73        0    0.0000
   1130 H         192.2210   77.2169   92.0964 H        73        0    0.0000
   1131 H         192.4052   74.9559   94.1601 H        73        0    0.0000
   1132 H         190.2742   75.6474   92.0541 H        73        0    0.0000
   1133 H         190.0557   74.4507   93.3260 H        73        0    0.0000
   1134 H         191.2903   74.1803   92.0796 H        73        0    0.0000
   1135 H          88.8000  205.6304   91.1924 H         0        0    0.0000
@<TRIPOS>BOND
     1     1     2      1
     2     1     6      1
     3     1     8      1
     4     1     9      1
     5     2     3      1
     6     2    10      1
     7     2    11      1
     8     3     4      1
     9     3     5      1
    10     3    12      1
    11     4    13      1
    12     4    14      1
    13     4  1135      H
    14     5     6      1
    15     5    15      1
    16     5    16      1
    17     6     7      1
    18     6    17      1
    19     7    18      1
    20     7    19      1
    21     7    23      1
    22    20    21      1
    23    20    25      1
    24    20    27      1
    25    20    28      1
    26    21    22      1
    27    21    29      1
    28    21    30      1
    29    22    23      1
    30    22    24      1
    31    22    31      1
    32    23    32      1
    33    23    33      1
    34    24    25      1
    35    24    34      1
    36    24    35      1
    37    25    26      1
    38    25    36      1
    39    26    37      1
    40    26    38      1
    41    26    39      1
    42    39    40      1
    43    39    41      1
    44    39    42      1
    45    40    43      1
    46    40    44      1
    47    40    48      1
    48    45    46      1
    49    45    50      1
    50    45    52      1
    51    45    53      1
    52    46    47      1
    53    46    54      1
    54    46    55      1
    55    47    48      1
    56    47    49      1
    57    47    56      1
    58    48    57      1
    59    48    58      1
    60    49    50      1
    61    49    59      1
    62    49    60      1
    63    50    51      1
    64    50    61      1
    65    51    62      1
    66    51    63      1
    67    51    64      1
    68    64    65      1
    69    64    66      1
    70    64    67      1
    71    65    68      1
    72    65    69      1
    73    65    73      1
    74    70    71      1
    75    70    75      1
    76    70    77      1
    77    70    78      1
    78    71    72      1
    79    71    79      1
    80    71    80      1
    81    72    73      1
    82    72    74      1
    83    72    81      1
    84    73    82      1
    85    73    83      1
    86    74    75      1
    87    74    84      1
    88    74    85      1
    89    75    76      1
    90    75    86      1
    91    76    87      1
    92    76    88      1
    93    76    92      1
    94    89    90      1
    95    89    94      1
    96    89    96      1
    97    89    97      1
    98    90    91      1
    99    90    98      1
   100    90    99      1
   101    91    92      1
   102    91    93      1
   103    91   100      1
   104    92   101      1
   105    92   102      1
   106    93    94      1
   107    93   103      1
   108    93   104      1
   109    94    95      1
   110    94   105      1
   111    95   106      1
   112    95   107      1
   113    95   108      1
   114   108   109      1
   115   108   110      1
   116   108   111      1
   117   109   112      1
   118   109   113      1
   119   109   114      1
   120   114   115      1
   121   114   116      1
   122   114   117      1
   123   115   118      1
   124   115   119      1
   125   115   120      1
   126   120   121      1
   127   120   122      1
   128   120   123      1
   129   121   124      1
   130   121   125      1
   131   121   126      1
   132   126   127      1
   133   126   128      1
   134   126   129      1
   135   127   130      1
   136   127   131      1
   137   127   135      1
   138   132   133      1
   139   132   137      1
   140   132   139      1
   141   132   140      1
   142   133   134      1
   143   133   141      1
   144   133   142      1
   145   134   135      1
   146   134   136      1
   147   134   143      1
   148   135   144      1
   149   135   145      1
   150   136   137      1
   151   136   146      1
   152   136   147      1
   153   137   138      1
   154   137   148      1
   155   138   149      1
   156   138   150      1
   157   138   154      1
   158   151   152      1
   159   151   156      1
   160   151   158      1
   161   151   159      1
   162   152   153      1
   163   152   160      1
   164   152   161      1
   165   153   154      1
   166   153   155      1
   167   153   162      1
   168   154   163      1
   169   154   164      1
   170   155   156      1
   171   155   165      1
   172   155   166      1
   173   156   157      1
   174   156   167      1
   175   157   168      1
   176   157   169      1
   177   157   170      1
   178   170   171      1
   179   170   172      1
   180   170   173      1
   181   171   174      1
   182   171   175      1
   183   171   179      1
   184   176   177      1
   185   176   181      1
   186   176   183      1
   187   176   184      1
   188   177   178      1
   189   177   185      1
   190   177   186      1
   191   178   179      1
   192   178   180      1
   193   178   187      1
   194   179   188      1
   195   179   189      1
   196   180   181      1
   197   180   190      1
   198   180   191      1
   199   181   182      1
   200   181   192      1
   201   182   193      1
   202   182   194      1
   203   182   195      1
   204   195   196      1
   205   195   197      1
   206   195   198      1
   207   196   199      1
   208   196   200      1
   209   196   204      1
   210   201   202      1
   211   201   206      1
   212   201   208      1
   213   201   209      1
   214   202   203      1
   215   202   210      1
   216   202   211      1
   217   203   204      1
   218   203   205      1
   219   203   212      1
   220   204   213      1
   221   204   214      1
   222   205   206      1
   223   205   215      1
   224   205   216      1
   225   206   207      1
   226   206   217      1
   227   207   218      1
   228   207   219      1
   229   207   223      1
   230   220   221      1
   231   220   225      1
   232   220   227      1
   233   220   228      1
   234   221   222      1
   235   221   229      1
   236   221   230      1
   237   222   223      1
   238   222   224      1
   239   222   231      1
   240   223   232      1
   241   223   233      1
   242   224   225      1
   243   224   234      1
   244   224   235      1
   245   225   226      1
   246   225   236      1
   247   226   237      1
   248   226   238      1
   249   226   242      1
   250   239   240      1
   251   239   244      1
   252   239   246      1
   253   239   247      1
   254   240   241      1
   255   240   248      1
   256   240   249      1
   257   241   242      1
   258   241   243      1
   259   241   250      1
   260   242   251      1
   261   242   252      1
   262   243   244      1
   263   243   253      1
   264   243   254      1
   265   244   245      1
   266   244   255      1
   267   245   256      1
   268   245   257      1
   269   245   261      1
   270   258   259      1
   271   258   263      1
   272   258   265      1
   273   258   266      1
   274   259   260      1
   275   259   267      1
   276   259   268      1
   277   260   261      1
   278   260   262      1
   279   260   269      1
   280   261   270      1
   281   261   271      1
   282   262   263      1
   283   262   272      1
   284   262   273      1
   285   263   264      1
   286   263   274      1
   287   264   275      1
   288   264   276      1
   289   264   277      1
   290   277   278      1
   291   277   279      1
   292   277   280      1
   293   278   281      1
   294   278   282      1
   295   278   286      1
   296   283   284      1
   297   283   288      1
   298   283   290      1
   299   283   291      1
   300   284   285      1
   301   284   292      1
   302   284   293      1
   303   285   286      1
   304   285   287      1
   305   285   294      1
   306   286   295      1
   307   286   296      1
   308   287   288      1
   309   287   297      1
   310   287   298      1
   311   288   289      1
   312   288   299      1
   313   289   300      1
   314   289   301      1
   315   289   305      1
   316   302   303      1
   317   302   307      1
   318   302   309      1
   319   302   310      1
   320   303   304      1
   321   303   311      1
   322   303   312      1
   323   304   305      1
   324   304   306      1
   325   304   313      1
   326   305   314      1
   327   305   315      1
   328   306   307      1
   329   306   316      1
   330   306   317      1
   331   307   308      1
   332   307   318      1
   333   308   319      1
   334   308   320      1
   335   308   324      1
   336   321   322      1
   337   321   326      1
   338   321   328      1
   339   321   329      1
   340   322   323      1
   341   322   330      1
   342   322   331      1
   343   323   324      1
   344   323   325      1
   345   323   332      1
   346   324   333      1
   347   324   334      1
   348   325   326      1
   349   325   335      1
   350   325   336      1
   351   326   327      1
   352   326   337      1
   353   327   338      1
   354   327   339      1
   355   327   343      1
   356   340   341      1
   357   340   345      1
   358   340   347      1
   359   340   348      1
   360   341   342      1
   361   341   349      1
   362   341   350      1
   363   342   343      1
   364   342   344      1
   365   342   351      1
   366   343   352      1
   367   343   353      1
   368   344   345      1
   369   344   354      1
   370   344   355      1
   371   345   346      1
   372   345   356      1
   373   346   357      1
   374   346   358      1
   375   346   362      1
   376   359   360      1
   377   359   364      1
   378   359   366      1
   379   359   367      1
   380   360   361      1
   381   360   368      1
   382   360   369      1
   383   361   362      1
   384   361   363      1
   385   361   370      1
   386   362   371      1
   387   362   372      1
   388   363   364      1
   389   363   373      1
   390   363   374      1
   391   364   365      1
   392   364   375      1
   393   365   376      1
   394   365   377      1
   395   365   381      1
   396   378   379      1
   397   378   383      1
   398   378   385      1
   399   378   386      1
   400   379   380      1
   401   379   387      1
   402   379   388      1
   403   380   381      1
   404   380   382      1
   405   380   389      1
   406   381   390      1
   407   381   391      1
   408   382   383      1
   409   382   392      1
   410   382   393      1
   411   383   384      1
   412   383   394      1
   413   384   395      1
   414   384   396      1
   415   384   397      1
   416   397   398      1
   417   397   399      1
   418   397   400      1
   419   398   401      1
   420   398   402      1
   421   398   406      1
   422   403   404      1
   423   403   408      1
   424   403   410      1
   425   403   411      1
   426   404   405      1
   427   404   412      1
   428   404   413      1
   429   405   406      1
   430   405   407      1
   431   405   414      1
   432   406   415      1
   433   406   416      1
   434   407   408      1
   435   407   417      1
   436   407   418      1
   437   408   409      1
   438   408   419      1
   439   409   420      1
   440   409   421      1
   441   409   425      1
   442   422   423      1
   443   422   427      1
   444   422   429      1
   445   422   430      1
   446   423   424      1
   447   423   431      1
   448   423   432      1
   449   424   425      1
   450   424   426      1
   451   424   433      1
   452   425   434      1
   453   425   435      1
   454   426   427      1
   455   426   436      1
   456   426   437      1
   457   427   428      1
   458   427   438      1
   459   428   439      1
   460   428   440      1
   461   428   444      1
   462   441   442      1
   463   441   446      1
   464   441   448      1
   465   441   449      1
   466   442   443      1
   467   442   450      1
   468   442   451      1
   469   443   444      1
   470   443   445      1
   471   443   452      1
   472   444   453      1
   473   444   454      1
   474   445   446      1
   475   445   455      1
   476   445   456      1
   477   446   447      1
   478   446   457      1
   479   447   458      1
   480   447   459      1
   481   447   463      1
   482   460   461      1
   483   460   465      1
   484   460   467      1
   485   460   468      1
   486   461   462      1
   487   461   469      1
   488   461   470      1
   489   462   463      1
   490   462   464      1
   491   462   471      1
   492   463   472      1
   493   463   473      1
   494   464   465      1
   495   464   474      1
   496   464   475      1
   497   465   466      1
   498   465   476      1
   499   466   477      1
   500   466   478      1
   501   466   479      1
   502   479   480      1
   503   479   481      1
   504   479   482      1
   505   480   483      1
   506   480   484      1
   507   480   488      1
   508   485   486      1
   509   485   490      1
   510   485   492      1
   511   485   493      1
   512   486   487      1
   513   486   494      1
   514   486   495      1
   515   487   488      1
   516   487   489      1
   517   487   496      1
   518   488   497      1
   519   488   498      1
   520   489   490      1
   521   489   499      1
   522   489   500      1
   523   490   491      1
   524   490   501      1
   525   491   502      1
   526   491   503      1
   527   491   507      1
   528   504   505      1
   529   504   509      1
   530   504   511      1
   531   504   512      1
   532   505   506      1
   533   505   513      1
   534   505   514      1
   535   506   507      1
   536   506   508      1
   537   506   515      1
   538   507   516      1
   539   507   517      1
   540   508   509      1
   541   508   518      1
   542   508   519      1
   543   509   510      1
   544   509   520      1
   545   510   521      1
   546   510   522      1
   547   510   526      1
   548   523   524      1
   549   523   528      1
   550   523   530      1
   551   523   531      1
   552   524   525      1
   553   524   532      1
   554   524   533      1
   555   525   526      1
   556   525   527      1
   557   525   534      1
   558   526   535      1
   559   526   536      1
   560   527   528      1
   561   527   537      1
   562   527   538      1
   563   528   529      1
   564   528   539      1
   565   529   540      1
   566   529   541      1
   567   529   545      1
   568   542   543      1
   569   542   547      1
   570   542   549      1
   571   542   550      1
   572   543   544      1
   573   543   551      1
   574   543   552      1
   575   544   545      1
   576   544   546      1
   577   544   553      1
   578   545   554      1
   579   545   555      1
   580   546   547      1
   581   546   556      1
   582   546   557      1
   583   547   548      1
   584   547   558      1
   585   548   559      1
   586   548   560      1
   587   548   564      1
   588   561   562      1
   589   561   566      1
   590   561   568      1
   591   561   569      1
   592   562   563      1
   593   562   570      1
   594   562   571      1
   595   563   564      1
   596   563   565      1
   597   563   572      1
   598   564   573      1
   599   564   574      1
   600   565   566      1
   601   565   575      1
   602   565   576      1
   603   566   567      1
   604   566   577      1
   605   567   578      1
   606   567   579      1
   607   567   583      1
   608   580   581      1
   609   580   585      1
   610   580   587      1
   611   580   588      1
   612   581   582      1
   613   581   589      1
   614   581   590      1
   615   582   583      1
   616   582   584      1
   617   582   591      1
   618   583   592      1
   619   583   593      1
   620   584   585      1
   621   584   594      1
   622   584   595      1
   623   585   586      1
   624   585   596      1
   625   586   597      1
   626   586   598      1
   627   586   602      1
   628   599   600      1
   629   599   604      1
   630   599   606      1
   631   599   607      1
   632   600   601      1
   633   600   608      1
   634   600   609      1
   635   601   602      1
   636   601   603      1
   637   601   610      1
   638   602   611      1
   639   602   612      1
   640   603   604      1
   641   603   613      1
   642   603   614      1
   643   604   605      1
   644   604   615      1
   645   605   616      1
   646   605   617      1
   647   605   621      1
   648   618   619      1
   649   618   623      1
   650   618   625      1
   651   618   626      1
   652   619   620      1
   653   619   627      1
   654   619   628      1
   655   620   621      1
   656   620   622      1
   657   620   629      1
   658   621   630      1
   659   621   631      1
   660   622   623      1
   661   622   632      1
   662   622   633      1
   663   623   624      1
   664   623   634      1
   665   624   635      1
   666   624   636      1
   667   624   640      1
   668   637   638      1
   669   637   642      1
   670   637   644      1
   671   637   645      1
   672   638   639      1
   673   638   646      1
   674   638   647      1
   675   639   640      1
   676   639   641      1
   677   639   648      1
   678   640   649      1
   679   640   650      1
   680   641   642      1
   681   641   651      1
   682   641   652      1
   683   642   643      1
   684   642   653      1
   685   643   654      1
   686   643   655      1
   687   643   659      1
   688   656   657      1
   689   656   661      1
   690   656   663      1
   691   656   664      1
   692   657   658      1
   693   657   665      1
   694   657   666      1
   695   658   659      1
   696   658   660      1
   697   658   667      1
   698   659   668      1
   699   659   669      1
   700   660   661      1
   701   660   670      1
   702   660   671      1
   703   661   662      1
   704   661   672      1
   705   662   673      1
   706   662   674      1
   707   662   675      1
   708   675   676      1
   709   675   677      1
   710   675   678      1
   711   676   679      1
   712   676   680      1
   713   676   684      1
   714   681   682      1
   715   681   686      1
   716   681   688      1
   717   681   689      1
   718   682   683      1
   719   682   690      1
   720   682   691      1
   721   683   684      1
   722   683   685      1
   723   683   692      1
   724   684   693      1
   725   684   694      1
   726   685   686      1
   727   685   695      1
   728   685   696      1
   729   686   687      1
   730   686   697      1
   731   687   698      1
   732   687   699      1
   733   687   703      1
   734   700   701      1
   735   700   705      1
   736   700   707      1
   737   700   708      1
   738   701   702      1
   739   701   709      1
   740   701   710      1
   741   702   703      1
   742   702   704      1
   743   702   711      1
   744   703   712      1
   745   703   713      1
   746   704   705      1
   747   704   714      1
   748   704   715      1
   749   705   706      1
   750   705   716      1
   751   706   717      1
   752   706   718      1
   753   706   722      1
   754   719   720      1
   755   719   724      1
   756   719   726      1
   757   719   727      1
   758   720   721      1
   759   720   728      1
   760   720   729      1
   761   721   722      1
   762   721   723      1
   763   721   730      1
   764   722   731      1
   765   722   732      1
   766   723   724      1
   767   723   733      1
   768   723   734      1
   769   724   725      1
   770   724   735      1
   771   725   736      1
   772   725   737      1
   773   725   741      1
   774   738   739      1
   775   738   743      1
   776   738   745      1
   777   738   746      1
   778   739   740      1
   779   739   747      1
   780   739   748      1
   781   740   741      1
   782   740   742      1
   783   740   749      1
   784   741   750      1
   785   741   751      1
   786   742   743      1
   787   742   752      1
   788   742   753      1
   789   743   744      1
   790   743   754      1
   791   744   755      1
   792   744   756      1
   793   744   760      1
   794   757   758      1
   795   757   762      1
   796   757   764      1
   797   757   765      1
   798   758   759      1
   799   758   766      1
   800   758   767      1
   801   759   760      1
   802   759   761      1
   803   759   768      1
   804   760   769      1
   805   760   770      1
   806   761   762      1
   807   761   771      1
   808   761   772      1
   809   762   763      1
   810   762   773      1
   811   763   774      1
   812   763   775      1
   813   763   779      1
   814   776   777      1
   815   776   781      1
   816   776   783      1
   817   776   784      1
   818   777   778      1
   819   777   785      1
   820   777   786      1
   821   778   779      1
   822   778   780      1
   823   778   787      1
   824   779   788      1
   825   779   789      1
   826   780   781      1
   827   780   790      1
   828   780   791      1
   829   781   782      1
   830   781   792      1
   831   782   793      1
   832   782   794      1
   833   782   795      1
   834   795   796      1
   835   795   797      1
   836   795   798      1
   837   796   799      1
   838   796   800      1
   839   796   804      1
   840   801   802      1
   841   801   806      1
   842   801   808      1
   843   801   809      1
   844   802   803      1
   845   802   810      1
   846   802   811      1
   847   803   804      1
   848   803   805      1
   849   803   812      1
   850   804   813      1
   851   804   814      1
   852   805   806      1
   853   805   815      1
   854   805   816      1
   855   806   807      1
   856   806   817      1
   857   807   818      1
   858   807   819      1
   859   807   823      1
   860   820   821      1
   861   820   825      1
   862   820   827      1
   863   820   828      1
   864   821   822      1
   865   821   829      1
   866   821   830      1
   867   822   823      1
   868   822   824      1
   869   822   831      1
   870   823   832      1
   871   823   833      1
   872   824   825      1
   873   824   834      1
   874   824   835      1
   875   825   826      1
   876   825   836      1
   877   826   837      1
   878   826   838      1
   879   826   839      1
   880   839   840      1
   881   839   841      1
   882   839   842      1
   883   840   843      1
   884   840   844      1
   885   840   848      1
   886   845   846      1
   887   845   850      1
   888   845   852      1
   889   845   853      1
   890   846   847      1
   891   846   854      1
   892   846   855      1
   893   847   848      1
   894   847   849      1
   895   847   856      1
   896   848   857      1
   897   848   858      1
   898   849   850      1
   899   849   859      1
   900   849   860      1
   901   850   851      1
   902   850   861      1
   903   851   862      1
   904   851   863      1
   905   851   867      1
   906   864   865      1
   907   864   869      1
   908   864   871      1
   909   864   872      1
   910   865   866      1
   911   865   873      1
   912   865   874      1
   913   866   867      1
   914   866   868      1
   915   866   875      1
   916   867   876      1
   917   867   877      1
   918   868   869      1
   919   868   878      1
   920   868   879      1
   921   869   870      1
   922   869   880      1
   923   870   881      1
   924   870   882      1
   925   870   883      1
   926   883   884      1
   927   883   885      1
   928   883   886      1
   929   884   887      1
   930   884   888      1
   931   884   892      1
   932   889   890      1
   933   889   894      1
   934   889   896      1
   935   889   897      1
   936   890   891      1
   937   890   898      1
   938   890   899      1
   939   891   892      1
   940   891   893      1
   941   891   900      1
   942   892   901      1
   943   892   902      1
   944   893   894      1
   945   893   903      1
   946   893   904      1
   947   894   895      1
   948   894   905      1
   949   895   906      1
   950   895   907      1
   951   895   908      1
   952   908   909      1
   953   908   910      1
   954   908   911      1
   955   909   912      1
   956   909   913      1
   957   909   917      1
   958   914   915      1
   959   914   919      1
   960   914   921      1
   961   914   922      1
   962   915   916      1
   963   915   923      1
   964   915   924      1
   965   916   917      1
   966   916   918      1
   967   916   925      1
   968   917   926      1
   969   917   927      1
   970   918   919      1
   971   918   928      1
   972   918   929      1
   973   919   920      1
   974   919   930      1
   975   920   931      1
   976   920   932      1
   977   920   936      1
   978   933   934      1
   979   933   938      1
   980   933   940      1
   981   933   941      1
   982   934   935      1
   983   934   942      1
   984   934   943      1
   985   935   936      1
   986   935   937      1
   987   935   944      1
   988   936   945      1
   989   936   946      1
   990   937   938      1
   991   937   947      1
   992   937   948      1
   993   938   939      1
   994   938   949      1
   995   939   950      1
   996   939   951      1
   997   939   955      1
   998   952   953      1
   999   952   957      1
  1000   952   959      1
  1001   952   960      1
  1002   953   954      1
  1003   953   961      1
  1004   953   962      1
  1005   954   955      1
  1006   954   956      1
  1007   954   963      1
  1008   955   964      1
  1009   955   965      1
  1010   956   957      1
  1011   956   966      1
  1012   956   967      1
  1013   957   958      1
  1014   957   968      1
  1015   958   969      1
  1016   958   970      1
  1017   958   971      1
  1018   971   972      1
  1019   971   973      1
  1020   971   974      1
  1021   972   975      1
  1022   972   976      1
  1023   972   980      1
  1024   977   978      1
  1025   977   982      1
  1026   977   984      1
  1027   977   985      1
  1028   978   979      1
  1029   978   986      1
  1030   978   987      1
  1031   979   980      1
  1032   979   981      1
  1033   979   988      1
  1034   980   989      1
  1035   980   990      1
  1036   981   982      1
  1037   981   991      1
  1038   981   992      1
  1039   982   983      1
  1040   982   993      1
  1041   983   994      1
  1042   983   995      1
  1043   983   999      1
  1044   996   997      1
  1045   996  1001      1
  1046   996  1003      1
  1047   996  1004      1
  1048   997   998      1
  1049   997  1005      1
  1050   997  1006      1
  1051   998   999      1
  1052   998  1000      1
  1053   998  1007      1
  1054   999  1008      1
  1055   999  1009      1
  1056  1000  1001      1
  1057  1000  1010      1
  1058  1000  1011      1
  1059  1001  1002      1
  1060  1001  1012      1
  1061  1002  1013      1
  1062  1002  1014      1
  1063  1002  1015      1
  1064  1015  1016      1
  1065  1015  1017      1
  1066  1015  1018      1
  1067  1016  1019      1
  1068  1016  1020      1
  1069  1016  1024      1
  1070  1021  1022      1
  1071  1021  1026      1
  1072  1021  1028      1
  1073  1021  1029      1
  1074  1022  1023      1
  1075  1022  1030      1
  1076  1022  1031      1
  1077  1023  1024      1
  1078  1023  1025      1
  1079  1023  1032      1
  1080  1024  1033      1
  1081  1024  1034      1
  1082  1025  1026      1
  1083  1025  1035      1
  1084  1025  1036      1
  1085  1026  1027      1
  1086  1026  1037      1
  1087  1027  1038      1
  1088  1027  1039      1
  1089  1027  1043      1
  1090  1040  1041      1
  1091  1040  1045      1
  1092  1040  1047      1
  1093  1040  1048      1
  1094  1041  1042      1
  1095  1041  1049      1
  1096  1041  1050      1
  1097  1042  1043      1
  1098  1042  1044      1
  1099  1042  1051      1
  1100  1043  1052      1
  1101  1043  1053      1
  1102  1044  1045      1
  1103  1044  1054      1
  1104  1044  1055      1
  1105  1045  1046      1
  1106  1045  1056      1
  1107  1046  1057      1
  1108  1046  1058      1
  1109  1046  1059      1
  1110  1059  1060      1
  1111  1059  1061      1
  1112  1059  1062      1
  1113  1060  1063      1
  1114  1060  1064      1
  1115  1060  1068      1
  1116  1065  1066      1
  1117  1065  1070      1
  1118  1065  1072      1
  1119  1065  1073      1
  1120  1066  1067      1
  1121  1066  1074      1
  1122  1066  1075      1
  1123  1067  1068      1
  1124  1067  1069      1
  1125  1067  1076      1
  1126  1068  1077      1
  1127  1068  1078      1
  1128  1069  1070      1
  1129  1069  1079      1
  1130  1069  1080      1
  1131  1070  1071      1
  1132  1070  1081      1
  1133  1071  1082      1
  1134  1071  1083      1
  1135  1071  1087      1
  1136  1084  1085      1
  1137  1084  1089      1
  1138  1084  1091      1
  1139  1084  1092      1
  1140  1085  1086      1
  1141  1085  1093      1
  1142  1085  1094      1
  1143  1086  1087      1
  1144  1086  1088      1
  1145  1086  1095      1
  1146  1087  1096      1
  1147  1087  1097      1
  1148  1088  1089      1
  1149  1088  1098      1
  1150  1088  1099      1
  1151  1089  1090      1
  1152  1089  1100      1
  1153  1090  1101      1
  1154  1090  1102      1
  1155  1090  1103      1
  1156  1103  1104      1
  1157  1103  1105      1
  1158  1103  1106      1
  1159  1104  1107      1
  1160  1104  1108      1
  1161  1104  1109      1
  1162  1109  1110      1
  1163  1109  1111      1
  1164  1109  1112      1
  1165  1110  1113      1
  1166  1110  1114      1
  1167  1110  1118      1
  1168  1115  1116      1
  1169  1115  1120      1
  1170  1115  1122      1
  1171  1115  1123      1
  1172  1116  1117      1
  1173  1116  1124      1
  1174  1116  1125      1
  1175  1117  1118      1
  1176  1117  1119      1
  1177  1117  1126      1
  1178  1118  1127      1
  1179  1118  1128      1
  1180  1119  1120      1
  1181  1119  1129      1
  1182  1119  1130      1
  1183  1120  1121      1
  1184  1120  1131      1
  1185  1121  1132      1
  1186  1121  1133      1
  1187  1121  1134      H
