###
### Created by PolyChef-cpp17 on Wed Feb 26 21:14:13 2025
###

@<TRIPOS>MOLECULE
NO_INFO
1942 2033 1 0 0
SMALL
USER_CHARGES


@<TRIPOS>ATOM
      1 C         157.3004  145.8334   50.5307 C.3       0        0    0.0000
      2 C         156.4670  145.0640   49.5154 C.3       0        0    0.0000
      3 C         155.1703  145.8778   49.4508 C.3       0        0    0.0000
      4 C         153.9727  145.1576   48.8239 C.3       0        0    0.0000
      5 C         154.9524  146.4080   50.8815 C.3       0        0    0.0000
      6 C         156.2816  146.1699   51.6245 C.3       0        0    0.0000
      7 C         156.7020  147.2762   52.5968 C.3       0        0    0.0000
      8 H         158.1327  145.2348   50.9140 H         0        0    0.0000
      9 H         157.7154  146.7330   50.0631 H         0        0    0.0000
     10 H         156.9629  145.0027   48.5418 H         0        0    0.0000
     11 H         156.2955  144.0434   49.8747 H         0        0    0.0000
     12 H         155.3749  146.7539   48.8170 H         0        0    0.0000
     13 H         153.6044  144.3987   49.5244 H         0        0    0.0000
     14 H         153.1571  145.8763   48.6807 H         0        0    0.0000
     15 H         154.1416  145.8927   51.4076 H         0        0    0.0000
     16 H         154.6710  147.4658   50.8409 H         0        0    0.0000
     17 H         156.1478  145.2587   52.2270 H         0        0    0.0000
     18 H         157.4951  146.8954   53.2511 H         0        0    0.0000
     19 H         157.1349  148.1077   52.0281 H         0        0    0.0000
     20 C         154.0407  145.2704   55.7156 C.3       1        0    0.0000
     21 C         155.0576  145.5549   54.6075 C.3       1        0    0.0000
     22 C         154.5050  146.7410   53.7969 C.3       1        0    0.0000
     23 C         155.5431  147.8251   53.4821 C.3       1        0    0.0000
     24 C         153.3435  147.2733   54.6423 C.3       1        0    0.0000
     25 C         152.7673  146.0317   55.3314 C.3       1        0    0.0000
     26 C         151.8357  145.2256   54.4065 C.3       1        0    0.0000
     27 H         153.8865  144.1970   55.8612 H         1        0    0.0000
     28 H         154.4277  145.6709   56.6614 H         1        0    0.0000
     29 H         156.0411  145.7596   55.0448 H         1        0    0.0000
     30 H         155.1683  144.6792   53.9573 H         1        0    0.0000
     31 H         154.0917  146.3524   52.8552 H         1        0    0.0000
     32 H         155.0566  148.6492   52.9468 H         1        0    0.0000
     33 H         155.9511  148.2452   54.4087 H         1        0    0.0000
     34 H         152.6036  147.8042   54.0346 H         1        0    0.0000
     35 H         153.7136  147.9744   55.4016 H         1        0    0.0000
     36 H         152.2168  146.3328   56.2318 H         1        0    0.0000
     37 H         151.4411  144.3400   54.9168 H         1        0    0.0000
     38 H         152.4042  144.8672   53.5401 H         1        0    0.0000
     39 C         150.6512  146.0896   53.8846 C.3       2        0    0.0000
     40 C         149.2709  145.4547   54.1064 C.3       2        0    0.0000
     41 H         150.6828  147.0373   54.4372 H         2        0    0.0000
     42 H         150.8115  146.3370   52.8287 H         2        0    0.0000
     43 H         148.5868  145.6896   53.2824 H         2        0    0.0000
     44 H         149.3944  144.3642   54.1104 H         2        0    0.0000
     45 C         152.0688  146.5077   56.6235 C.3       3        0    0.0000
     46 C         151.0274  145.4444   56.2658 C.3       3        0    0.0000
     47 C         149.6493  146.0569   56.5740 C.3       3        0    0.0000
     48 C         148.6045  145.8398   55.4725 C.3       3        0    0.0000
     49 C         149.9375  147.5413   56.8205 C.3       3        0    0.0000
     50 C         151.3321  147.5632   57.4553 C.3       3        0    0.0000
     51 C         151.2981  147.2331   58.9596 C.3       3        0    0.0000
     52 H         152.9367  146.0738   57.1291 H         3        0    0.0000
     53 H         152.4340  146.9700   55.6975 H         3        0    0.0000
     54 H         151.1373  145.1504   55.2161 H         3        0    0.0000
     55 H         151.1782  144.5436   56.8719 H         3        0    0.0000
     56 H         149.2802  145.6204   57.5131 H         3        0    0.0000
     57 H         147.9266  145.0307   55.7693 H         3        0    0.0000
     58 H         147.9900  146.7385   55.3452 H         3        0    0.0000
     59 H         149.1751  148.0075   57.4529 H         3        0    0.0000
     60 H         149.9598  148.0891   55.8695 H         3        0    0.0000
     61 H         151.7878  148.5507   57.3083 H         3        0    0.0000
     62 H         152.1264  146.5723   59.2386 H         3        0    0.0000
     63 H         150.3705  146.6974   59.1938 H         3        0    0.0000
     64 C         151.3485  148.5192   59.8344 C.3       4        0    0.0000
     65 C         152.1327  148.3526   61.1439 C.3       4        0    0.0000
     66 H         151.8476  149.2910   59.2346 H         4        0    0.0000
     67 H         150.3299  148.8783   60.0224 H         4        0    0.0000
     68 H         151.9923  147.3516   61.5683 H         4        0    0.0000
     69 H         153.2018  148.4494   60.9153 H         4        0    0.0000
     70 C         148.8931  150.2486   60.9382 C.3       5        0    0.0000
     71 C         150.3192  150.3854   60.3980 C.3       5        0    0.0000
     72 C         151.2119  150.7141   61.5997 C.3       5        0    0.0000
     73 C         151.8015  149.4369   62.2271 C.3       5        0    0.0000
     74 C         150.2502  151.4849   62.5130 C.3       5        0    0.0000
     75 C         148.9270  150.7234   62.4003 C.3       5        0    0.0000
     76 C         147.7250  151.5780   62.8185 C.3       5        0    0.0000
     77 H         148.2059  150.8394   60.3220 H         5        0    0.0000
     78 H         148.5600  149.2057   60.8868 H         5        0    0.0000
     79 H         150.3488  151.2199   59.6859 H         5        0    0.0000
     80 H         150.6384  149.4900   59.8551 H         5        0    0.0000
     81 H         152.0348  151.3681   61.2838 H         5        0    0.0000
     82 H         151.0739  149.0111   62.9286 H         5        0    0.0000
     83 H         152.7025  149.6594   62.8086 H         5        0    0.0000
     84 H         150.1329  152.5091   62.1353 H         5        0    0.0000
     85 H         150.5928  151.5555   63.5496 H         5        0    0.0000
     86 H         148.9797  149.8388   63.0504 H         5        0    0.0000
     87 H         146.8004  150.9925   62.7551 H         5        0    0.0000
     88 H         147.6171  152.4191   62.1236 H         5        0    0.0000
     89 C         150.6223  149.6692   65.0661 C.3       6        0    0.0000
     90 C         149.1605  150.1176   65.1426 C.3       6        0    0.0000
     91 C         149.1654  151.6384   64.9396 C.3       6        0    0.0000
     92 C         147.8876  152.1390   64.2604 C.3       6        0    0.0000
     93 C         150.4500  151.8788   64.1396 C.3       6        0    0.0000
     94 C         151.4495  150.9377   64.8201 C.3       6        0    0.0000
     95 C         152.7170  150.6577   64.0079 C.3       6        0    0.0000
     96 H         150.9361  149.1683   65.9883 H         6        0    0.0000
     97 H         150.7406  148.9481   64.2484 H         6        0    0.0000
     98 H         148.7100  149.8512   66.1048 H         6        0    0.0000
     99 H         148.5818  149.6103   64.3614 H         6        0    0.0000
    100 H         149.2714  152.1152   65.9249 H         6        0    0.0000
    101 H         147.9108  153.2341   64.2079 H         6        0    0.0000
    102 H         147.0088  151.8698   64.8579 H         6        0    0.0000
    103 H         150.7730  152.9235   64.1889 H         6        0    0.0000
    104 H         150.3122  151.6095   63.0849 H         6        0    0.0000
    105 H         151.7229  151.3632   65.7968 H         6        0    0.0000
    106 H         152.9216  151.4893   63.3236 H         6        0    0.0000
    107 H         152.5593  149.7682   63.3862 H         6        0    0.0000
    108 C         153.9566  150.4150   64.9120 C.3       7        0    0.0000
    109 C         153.9203  149.0839   65.6764 C.3       7        0    0.0000
    110 H         154.8332  150.4044   64.2515 H         7        0    0.0000
    111 H         154.0883  151.2632   65.5940 H         7        0    0.0000
    112 H         153.3009  148.3428   65.1577 H         7        0    0.0000
    113 H         154.9397  148.6781   65.7021 H         7        0    0.0000
    114 C         153.4485  149.2173   67.1658 C.3       8        0    0.0000
    115 C         154.1512  148.2524   68.1316 C.3       8        0    0.0000
    116 H         152.3747  148.9907   67.1795 H         8        0    0.0000
    117 H         153.5534  150.2578   67.4948 H         8        0    0.0000
    118 H         153.8451  147.2303   67.8744 H         8        0    0.0000
    119 H         155.2404  148.2926   68.0133 H         8        0    0.0000
    120 C         153.7748  148.4722   69.6378 C.3       9        0    0.0000
    121 C         153.2697  147.2067   70.3457 C.3       9        0    0.0000
    122 H         154.6880  148.8057   70.1472 H         9        0    0.0000
    123 H         153.0517  149.2919   69.7222 H         9        0    0.0000
    124 H         153.0075  146.4239   69.6243 H         9        0    0.0000
    125 H         154.0897  146.8083   70.9568 H         9        0    0.0000
    126 C         152.0631  147.4575   71.3152 C.3      10        0    0.0000
    127 C         151.9506  146.4295   72.4501 C.3      10        0    0.0000
    128 H         151.1508  147.3958   70.7081 H        10        0    0.0000
    129 H         152.1103  148.4804   71.7067 H        10        0    0.0000
    130 H         151.6805  145.4621   72.0076 H        10        0    0.0000
    131 H         152.9131  146.2855   72.9547 H        10        0    0.0000
    132 C         149.7920  150.3781   72.9594 C.3      11        0    0.0000
    133 C         150.8162  149.2618   72.8104 C.3      11        0    0.0000
    134 C         150.0120  148.0095   73.1745 C.3      11        0    0.0000
    135 C         150.8443  146.7677   73.5086 C.3      11        0    0.0000
    136 C         149.0273  148.4637   74.2697 C.3      11        0    0.0000
    137 C         149.0653  150.0044   74.2555 C.3      11        0    0.0000
    138 C         147.7191  150.7003   74.4786 C.3      11        0    0.0000
    139 H         150.2664  151.3624   73.0230 H        11        0    0.0000
    140 H         149.1186  150.3802   72.0952 H        11        0    0.0000
    141 H         151.2200  149.2103   71.7945 H        11        0    0.0000
    142 H         151.6506  149.4307   73.5000 H        11        0    0.0000
    143 H         149.4066  147.7516   72.2924 H        11        0    0.0000
    144 H         151.3227  146.9095   74.4850 H        11        0    0.0000
    145 H         150.1760  145.9043   73.6077 H        11        0    0.0000
    146 H         149.3011  148.1000   75.2659 H        11        0    0.0000
    147 H         148.0314  148.0605   74.0566 H        11        0    0.0000
    148 H         149.7175  150.3120   75.0869 H        11        0    0.0000
    149 H         147.8746  151.7856   74.4896 H        11        0    0.0000
    150 H         147.0594  150.4851   73.6297 H        11        0    0.0000
    151 C         143.5792  148.8530   75.0752 C.3      12        0    0.0000
    152 C         144.9679  149.2975   74.6087 C.3      12        0    0.0000
    153 C         145.4696  150.3064   75.6501 C.3      12        0    0.0000
    154 C         146.9939  150.2852   75.7938 C.3      12        0    0.0000
    155 C         144.7033  149.9099   76.9164 C.3      12        0    0.0000
    156 C         143.2996  149.6119   76.3791 C.3      12        0    0.0000
    157 C         142.4059  148.8170   77.3351 C.3      12        0    0.0000
    158 H         142.8148  149.0718   74.3218 H        12        0    0.0000
    159 H         143.5774  147.7680   75.2342 H        12        0    0.0000
    160 H         144.9296  149.7487   73.6114 H        12        0    0.0000
    161 H         145.6284  148.4244   74.5451 H        12        0    0.0000
    162 H         145.1414  151.3096   75.3411 H        12        0    0.0000
    163 H         147.3177  149.2736   76.0663 H        12        0    0.0000
    164 H         147.3083  150.9478   76.6086 H        12        0    0.0000
    165 H         144.6949  150.7148   77.6582 H        12        0    0.0000
    166 H         145.1442  149.0183   77.3795 H        12        0    0.0000
    167 H         142.8124  150.5642   76.1235 H        12        0    0.0000
    168 H         142.5473  147.7408   77.1815 H        12        0    0.0000
    169 H         141.3543  149.0327   77.1112 H        12        0    0.0000
    170 C         142.6756  149.1665   78.8244 C.3      13        0    0.0000
    171 C         141.8866  148.3044   79.8202 C.3      13        0    0.0000
    172 H         143.7456  148.9974   79.0008 H        13        0    0.0000
    173 H         142.4954  150.2349   78.9916 H        13        0    0.0000
    174 H         140.8212  148.2724   79.5635 H        13        0    0.0000
    175 H         142.2579  147.2741   79.7474 H        13        0    0.0000
    176 C         138.6631  147.7882   82.3390 C.3      14        0    0.0000
    177 C         139.8921  147.4042   81.5164 C.3      14        0    0.0000
    178 C         141.1138  147.9778   82.2548 C.3      14        0    0.0000
    179 C         142.0568  148.7421   81.3163 C.3      14        0    0.0000
    180 C         140.5213  148.8368   83.3826 C.3      14        0    0.0000
    181 C         139.1849  148.1673   83.7273 C.3      14        0    0.0000
    182 C         139.3137  146.9371   84.6440 C.3      14        0    0.0000
    183 H         138.1884  148.6647   81.8797 H        14        0    0.0000
    184 H         137.9153  146.9892   82.3591 H        14        0    0.0000
    185 H         139.7983  147.7796   80.4915 H        14        0    0.0000
    186 H         139.9798  146.3132   81.4528 H        14        0    0.0000
    187 H         141.6608  147.1373   82.7050 H        14        0    0.0000
    188 H         143.0989  148.6012   81.6257 H        14        0    0.0000
    189 H         141.8475  149.8162   81.3888 H        14        0    0.0000
    190 H         141.1978  148.9123   84.2396 H        14        0    0.0000
    191 H         140.3300  149.8566   83.0241 H        14        0    0.0000
    192 H         138.5063  148.8944   84.1913 H        14        0    0.0000
    193 H         140.3166  146.5009   84.5851 H        14        0    0.0000
    194 H         138.6147  146.1617   84.3077 H        14        0    0.0000
    195 C         138.9804  147.2749   86.1248 C.3      15        0    0.0000
    196 C         137.9477  146.3341   86.7620 C.3      15        0    0.0000
    197 H         139.9174  147.1841   86.6890 H        15        0    0.0000
    198 H         138.6675  148.3226   86.2033 H        15        0    0.0000
    199 H         137.7710  145.4524   86.1349 H        15        0    0.0000
    200 H         138.3611  145.9670   87.7102 H        15        0    0.0000
    201 C         137.9840  150.3903   87.5178 C.3      16        0    0.0000
    202 C         136.7731  149.5694   87.0767 C.3      16        0    0.0000
    203 C         136.7659  148.2957   87.9396 C.3      16        0    0.0000
    204 C         136.5811  147.0241   87.1010 C.3      16        0    0.0000
    205 C         138.0885  148.3444   88.7199 C.3      16        0    0.0000
    206 C         138.3934  149.8385   88.8858 C.3      16        0    0.0000
    207 C         137.6185  150.5172   90.0300 C.3      16        0    0.0000
    208 H         138.8015  150.2286   86.8036 H        16        0    0.0000
    209 H         137.7716  151.4640   87.5282 H        16        0    0.0000
    210 H         136.8263  149.3570   86.0032 H        16        0    0.0000
    211 H         135.8494  150.1347   87.2477 H        16        0    0.0000
    212 H         135.9344  148.3773   88.6539 H        16        0    0.0000
    213 H         136.0438  147.2542   86.1736 H        16        0    0.0000
    214 H         135.9614  146.3105   87.6572 H        16        0    0.0000
    215 H         138.0225  147.8109   89.6731 H        16        0    0.0000
    216 H         138.8923  147.8766   88.1365 H        16        0    0.0000
    217 H         139.4697  149.9902   89.0383 H        16        0    0.0000
    218 H         136.5552  150.2562   89.9993 H        16        0    0.0000
    219 H         137.6773  151.6058   89.9097 H        16        0    0.0000
    220 C         135.7737  149.1585   94.1340 C.3      17        0    0.0000
    221 C         136.1636  149.2534   92.6566 C.3      17        0    0.0000
    222 C         137.1943  150.3855   92.5552 C.3      17        0    0.0000
    223 C         138.2018  150.1557   91.4253 C.3      17        0    0.0000
    224 C         137.8073  150.4252   93.9590 C.3      17        0    0.0000
    225 C         136.5850  150.2372   94.8637 C.3      17        0    0.0000
    226 C         136.9136  149.8422   96.3061 C.3      17        0    0.0000
    227 H         134.6985  149.3132   94.2749 H        17        0    0.0000
    228 H         136.0097  148.1558   94.5101 H        17        0    0.0000
    229 H         135.2923  149.4578   92.0251 H        17        0    0.0000
    230 H         136.5855  148.2960   92.3282 H        17        0    0.0000
    231 H         136.6531  151.3271   92.3820 H        17        0    0.0000
    232 H         138.5006  149.1007   91.4156 H        17        0    0.0000
    233 H         139.1121  150.7403   91.6028 H        17        0    0.0000
    234 H         138.3194  151.3726   94.1550 H        17        0    0.0000
    235 H         138.5273  149.6087   94.0965 H        17        0    0.0000
    236 H         135.9991  151.1679   94.8597 H        17        0    0.0000
    237 H         137.5768  148.9693   96.3197 H        17        0    0.0000
    238 H         135.9909  149.5461   96.8195 H        17        0    0.0000
    239 C         139.0624  150.4584  100.4559 C.3      18        0    0.0000
    240 C         138.4966  149.8069   99.1916 C.3      18        0    0.0000
    241 C         137.4604  150.7891   98.6163 C.3      18        0    0.0000
    242 C         137.5708  151.0033   97.1017 C.3      18        0    0.0000
    243 C         137.6811  152.0831   99.4062 C.3      18        0    0.0000
    244 C         138.1177  151.6154  100.7987 C.3      18        0    0.0000
    245 C         136.9256  151.1846  101.6743 C.3      18        0    0.0000
    246 H         139.1862  149.7343  101.2668 H        18        0    0.0000
    247 H         140.0579  150.8617  100.2301 H        18        0    0.0000
    248 H         139.3077  149.5843   98.4896 H        18        0    0.0000
    249 H         138.0109  148.8554   99.4375 H        18        0    0.0000
    250 H         136.4564  150.4104   98.8554 H        18        0    0.0000
    251 H         137.0685  151.9393   96.8298 H        18        0    0.0000
    252 H         138.6208  151.1084   96.8053 H        18        0    0.0000
    253 H         136.7821  152.7075   99.4298 H        18        0    0.0000
    254 H         138.4848  152.6762   98.9509 H        18        0    0.0000
    255 H         138.6680  152.4208  101.3016 H        18        0    0.0000
    256 H         135.9814  151.5716  101.2754 H        18        0    0.0000
    257 H         137.0425  151.6047  102.6803 H        18        0    0.0000
    258 C         136.8591  148.0468  105.1570 C.3      19        0    0.0000
    259 C         136.7814  149.3560  104.3678 C.3      19        0    0.0000
    260 C         137.5554  149.1266  103.0573 C.3      19        0    0.0000
    261 C         136.8338  149.6365  101.8037 C.3      19        0    0.0000
    262 C         137.7977  147.6144  103.0165 C.3      19        0    0.0000
    263 C         137.9530  147.2088  104.4861 C.3      19        0    0.0000
    264 C         139.3628  147.5053  105.0316 C.3      19        0    0.0000
    265 H         137.0296  148.2233  106.2232 H        19        0    0.0000
    266 H         135.8988  147.5228  105.0673 H        19        0    0.0000
    267 H         135.7342  149.6315  104.2010 H        19        0    0.0000
    268 H         137.2444  150.1716  104.9355 H        19        0    0.0000
    269 H         138.5311  149.6264  103.1409 H        19        0    0.0000
    270 H         137.2890  149.1853  100.9139 H        19        0    0.0000
    271 H         135.7825  149.3268  101.8144 H        19        0    0.0000
    272 H         138.6711  147.3552  102.4093 H        19        0    0.0000
    273 H         136.9294  147.0999  102.5848 H        19        0    0.0000
    274 H         137.7359  146.1389  104.5975 H        19        0    0.0000
    275 H         139.4899  148.5733  105.2402 H        19        0    0.0000
    276 H         140.1096  147.2375  104.2747 H        19        0    0.0000
    277 C         139.6665  146.6891  106.3214 C.3      20        0    0.0000
    278 C         141.0182  145.9613  106.2953 C.3      20        0    0.0000
    279 H         139.6814  147.4051  107.1532 H        20        0    0.0000
    280 H         138.8428  145.9937  106.5211 H        20        0    0.0000
    281 H         141.0379  145.1841  105.5223 H        20        0    0.0000
    282 H         141.7927  146.6910  106.0263 H        20        0    0.0000
    283 C         139.9335  147.1043  110.5242 C.3      21        0    0.0000
    284 C         139.9500  146.9373  109.0055 C.3      21        0    0.0000
    285 C         140.3271  145.4719  108.7272 C.3      21        0    0.0000
    286 C         141.4367  145.3450  107.6750 C.3      21        0    0.0000
    287 C         140.6993  144.8959  110.1021 C.3      21        0    0.0000
    288 C         139.8522  145.6900  111.1045 C.3      21        0    0.0000
    289 C         138.3959  145.2049  111.2233 C.3      21        0    0.0000
    290 H         140.8754  147.5708  110.8401 H        21        0    0.0000
    291 H         139.1214  147.7581  110.8576 H        21        0    0.0000
    292 H         140.6458  147.6505  108.5504 H        21        0    0.0000
    293 H         138.9570  147.1465  108.5905 H        21        0    0.0000
    294 H         139.4276  144.9558  108.3629 H        21        0    0.0000
    295 H         141.7152  144.2934  107.5402 H        21        0    0.0000
    296 H         142.3335  145.8669  108.0298 H        21        0    0.0000
    297 H         140.5278  143.8163  110.1549 H        21        0    0.0000
    298 H         141.7625  145.0704  110.3131 H        21        0    0.0000
    299 H         140.3220  145.6699  112.0962 H        21        0    0.0000
    300 H         137.9261  145.1127  110.2382 H        21        0    0.0000
    301 H         137.8123  145.9480  111.7803 H        21        0    0.0000
    302 C         140.5148  140.9452  111.6622 C.3      22        0    0.0000
    303 C         140.0409  142.2513  111.0265 C.3      22        0    0.0000
    304 C         139.6636  143.1931  112.1830 C.3      22        0    0.0000
    305 C         138.2917  143.8489  111.9772 C.3      22        0    0.0000
    306 C         139.7576  142.3209  113.4443 C.3      22        0    0.0000
    307 C         140.8343  141.2769  113.1222 C.3      22        0    0.0000
    308 C         142.2774  141.7871  113.2887 C.3      22        0    0.0000
    309 H         139.6951  140.2162  111.6285 H        22        0    0.0000
    310 H         141.3595  140.5069  111.1214 H        22        0    0.0000
    311 H         139.2074  142.0621  110.3413 H        22        0    0.0000
    312 H         140.8481  142.6998  110.4355 H        22        0    0.0000
    313 H         140.4304  143.9784  112.2420 H        22        0    0.0000
    314 H         137.7934  144.0003  112.9417 H        22        0    0.0000
    315 H         137.6528  143.1759  111.3929 H        22        0    0.0000
    316 H         139.9859  142.9124  114.3363 H        22        0    0.0000
    317 H         138.8036  141.8086  113.6251 H        22        0    0.0000
    318 H         140.6928  140.3834  113.7437 H        22        0    0.0000
    319 H         142.3782  142.8178  112.9321 H        22        0    0.0000
    320 H         142.9494  141.1759  112.6741 H        22        0    0.0000
    321 C         139.9224  140.0340  116.4789 C.3      23        0    0.0000
    322 C         140.3724  140.8727  115.2802 C.3      23        0    0.0000
    323 C         141.5863  141.6948  115.7491 C.3      23        0    0.0000
    324 C         142.7615  141.6983  114.7637 C.3      23        0    0.0000
    325 C         141.9617  141.0835  117.1028 C.3      23        0    0.0000
    326 C         140.6277  140.6274  117.7033 C.3      23        0    0.0000
    327 C         139.8465  141.7877  118.3487 C.3      23        0    0.0000
    328 H         138.8324  140.0037  116.5686 H        23        0    0.0000
    329 H         140.2619  139.0003  116.3341 H        23        0    0.0000
    330 H         140.6029  140.2197  114.4312 H        23        0    0.0000
    331 H         139.5677  141.5457  114.9619 H        23        0    0.0000
    332 H         141.2564  142.7293  115.9215 H        23        0    0.0000
    333 H         143.4065  142.5606  114.9708 H        23        0    0.0000
    334 H         143.3771  140.8015  114.8988 H        23        0    0.0000
    335 H         142.4938  141.7962  117.7411 H        23        0    0.0000
    336 H         142.6155  140.2133  116.9608 H        23        0    0.0000
    337 H         140.8095  139.8475  118.4538 H        23        0    0.0000
    338 H         138.7829  141.5434  118.4453 H        23        0    0.0000
    339 H         139.9128  142.6732  117.7054 H        23        0    0.0000
    340 C         143.8488  140.6055  119.2447 C.3      24        0    0.0000
    341 C         142.7144  141.4937  118.7528 C.3      24        0    0.0000
    342 C         141.8411  141.6554  120.0014 C.3      24        0    0.0000
    343 C         140.4179  142.1614  119.7472 C.3      24        0    0.0000
    344 C         141.9449  140.3100  120.7461 C.3      24        0    0.0000
    345 C         143.1195  139.5571  120.0912 C.3      24        0    0.0000
    346 C         144.0048  138.7536  121.0487 C.3      24        0    0.0000
    347 H         144.4021  140.1526  118.4161 H        24        0    0.0000
    348 H         144.5520  141.1989  119.8394 H        24        0    0.0000
    349 H         143.0804  142.4552  118.3796 H        24        0    0.0000
    350 H         142.1797  140.9936  117.9378 H        24        0    0.0000
    351 H         142.3311  142.4075  120.6380 H        24        0    0.0000
    352 H         139.7515  141.7585  120.5191 H        24        0    0.0000
    353 H         140.4009  143.2524  119.8545 H        24        0    0.0000
    354 H         141.0336  139.7076  120.6658 H        24        0    0.0000
    355 H         142.1001  140.4942  121.8147 H        24        0    0.0000
    356 H         142.6786  138.8320  119.3906 H        24        0    0.0000
    357 H         144.7934  138.2543  120.4733 H        24        0    0.0000
    358 H         144.5063  139.4436  121.7375 H        24        0    0.0000
    359 C         139.6094  137.6810  120.8520 C.3      25        0    0.0000
    360 C         141.0910  137.8110  120.5334 C.3      25        0    0.0000
    361 C         141.7298  137.9352  121.9181 C.3      25        0    0.0000
    362 C         143.2390  137.6826  121.8823 C.3      25        0    0.0000
    363 C         140.9307  136.9409  122.7804 C.3      25        0    0.0000
    364 C         139.5838  136.7331  122.0577 C.3      25        0    0.0000
    365 C         138.3375  136.8364  122.9460 C.3      25        0    0.0000
    366 H         139.0430  137.2809  120.0053 H        25        0    0.0000
    367 H         139.1990  138.6675  121.0933 H        25        0    0.0000
    368 H         141.4474  136.9141  120.0121 H        25        0    0.0000
    369 H         141.2995  138.6800  119.9019 H        25        0    0.0000
    370 H         141.5367  138.9497  122.2966 H        25        0    0.0000
    371 H         143.6432  137.6613  122.9013 H        25        0    0.0000
    372 H         143.4308  136.6946  121.4471 H        25        0    0.0000
    373 H         141.4479  135.9762  122.8557 H        25        0    0.0000
    374 H         140.8165  137.3196  123.8015 H        25        0    0.0000
    375 H         139.5963  135.7073  121.6601 H        25        0    0.0000
    376 H         137.4599  136.5199  122.3700 H        25        0    0.0000
    377 H         138.1762  137.8880  123.2117 H        25        0    0.0000
    378 C         141.8027  136.0695  125.7562 C.3      26        0    0.0000
    379 C         140.9301  136.4571  124.5599 C.3      26        0    0.0000
    380 C         139.8078  135.4071  124.4751 C.3      26        0    0.0000
    381 C         138.4098  135.9978  124.2545 C.3      26        0    0.0000
    382 C         139.9117  134.6299  125.7914 C.3      26        0    0.0000
    383 C         141.4072  134.6357  126.1257 C.3      26        0    0.0000
    384 C         142.1898  133.5692  125.3363 C.3      26        0    0.0000
    385 H         142.8683  136.1918  125.5398 H        26        0    0.0000
    386 H         141.5667  136.7355  126.5960 H        26        0    0.0000
    387 H         140.5503  137.4767  124.6877 H        26        0    0.0000
    388 H         141.5213  136.4451  123.6367 H        26        0    0.0000
    389 H         140.0424  134.7171  123.6520 H        26        0    0.0000
    390 H         137.6781  135.1839  124.1870 H        26        0    0.0000
    391 H         138.1169  136.6182  125.1093 H        26        0    0.0000
    392 H         139.4992  133.6195  125.7046 H        26        0    0.0000
    393 H         139.3574  135.1473  126.5852 H        26        0    0.0000
    394 H         141.5443  134.4675  127.2015 H        26        0    0.0000
    395 H         143.2570  133.5981  125.5828 H        26        0    0.0000
    396 H         142.1051  133.7760  124.2628 H        26        0    0.0000
    397 C         141.6396  132.1372  125.5983 C.3      27        0    0.0000
    398 C         140.2113  131.9134  125.0812 C.3      27        0    0.0000
    399 H         142.3052  131.4409  125.0722 H        27        0    0.0000
    400 H         141.7190  131.9005  126.6658 H        27        0    0.0000
    401 H         140.1574  132.0354  123.9931 H        27        0    0.0000
    402 H         139.9310  130.8739  125.2946 H        27        0    0.0000
    403 C         140.8855  133.5889  129.0403 C.3      28        0    0.0000
    404 C         140.7817  132.7602  127.7691 C.3      28        0    0.0000
    405 C         139.3596  133.0458  127.2700 C.3      28        0    0.0000
    406 C         139.1349  132.8227  125.7690 C.3      28        0    0.0000
    407 C         139.0108  134.4560  127.7890 C.3      28        0    0.0000
    408 C         140.2072  134.9034  128.6487 C.3      28        0    0.0000
    409 C         139.8373  135.7482  129.8704 C.3      28        0    0.0000
    410 H         140.3491  133.0956  129.8600 H        28        0    0.0000
    411 H         141.9247  133.7357  129.3499 H        28        0    0.0000
    412 H         141.5442  133.0887  127.0546 H        28        0    0.0000
    413 H         140.9409  131.6946  127.9620 H        28        0    0.0000
    414 H         138.6897  132.3454  127.7907 H        28        0    0.0000
    415 H         138.1470  132.3706  125.6206 H        28        0    0.0000
    416 H         139.1151  133.7944  125.2615 H        28        0    0.0000
    417 H         138.0922  134.3993  128.3862 H        28        0    0.0000
    418 H         138.8221  135.1752  126.9850 H        28        0    0.0000
    419 H         140.8981  135.4695  128.0071 H        28        0    0.0000
    420 H         139.3589  136.6825  129.5534 H        28        0    0.0000
    421 H         139.1002  135.2069  130.4754 H        28        0    0.0000
    422 C         142.7384  139.2689  129.5448 C.3      29        0    0.0000
    423 C         141.9369  138.0056  129.2635 C.3      29        0    0.0000
    424 C         141.5402  137.5333  130.6661 C.3      29        0    0.0000
    425 C         141.0675  136.0794  130.7610 C.3      29        0    0.0000
    426 C         142.7308  137.9053  131.5714 C.3      29        0    0.0000
    427 C         143.6064  138.8637  130.7406 C.3      29        0    0.0000
    428 C         144.2373  140.0231  131.5179 C.3      29        0    0.0000
    429 H         143.3411  139.5710  128.6827 H        29        0    0.0000
    430 H         142.0580  140.0920  129.7894 H        29        0    0.0000
    431 H         141.0638  138.2068  128.6351 H        29        0    0.0000
    432 H         142.5677  137.2748  128.7456 H        29        0    0.0000
    433 H         140.6930  138.1588  130.9855 H        29        0    0.0000
    434 H         141.8939  135.4153  130.4813 H        29        0    0.0000
    435 H         140.8189  135.8507  131.8042 H        29        0    0.0000
    436 H         143.3245  137.0356  131.8728 H        29        0    0.0000
    437 H         142.3595  138.3610  132.4956 H        29        0    0.0000
    438 H         144.4393  138.2651  130.3418 H        29        0    0.0000
    439 H         144.8318  140.6346  130.8288 H        29        0    0.0000
    440 H         143.4413  140.6696  131.9060 H        29        0    0.0000
    441 C         145.8137  136.0772  131.4711 C.3      30        0    0.0000
    442 C         145.1221  137.4271  131.3567 C.3      30        0    0.0000
    443 C         145.3992  138.0704  132.7171 C.3      30        0    0.0000
    444 C         145.1451  139.5798  132.7042 C.3      30        0    0.0000
    445 C         146.8523  137.6646  133.0247 C.3      30        0    0.0000
    446 C         147.1364  136.4103  132.1729 C.3      30        0    0.0000
    447 C         147.7940  135.2428  132.9195 C.3      30        0    0.0000
    448 H         145.9753  135.6168  130.4913 H        30        0    0.0000
    449 H         145.1921  135.3964  132.0626 H        30        0    0.0000
    450 H         145.5666  138.0138  130.5435 H        30        0    0.0000
    451 H         144.0510  137.3232  131.1586 H        30        0    0.0000
    452 H         144.7451  137.5949  133.4624 H        30        0    0.0000
    453 H         144.6846  139.8940  133.6484 H        30        0    0.0000
    454 H         146.1033  140.1078  132.6305 H        30        0    0.0000
    455 H         147.5547  138.4572  132.7381 H        30        0    0.0000
    456 H         146.9871  137.4946  134.0980 H        30        0    0.0000
    457 H         147.8467  136.7168  131.3906 H        30        0    0.0000
    458 H         148.1564  134.5094  132.1894 H        30        0    0.0000
    459 H         147.0339  134.7343  133.5246 H        30        0    0.0000
    460 C         147.5271  136.2287  137.3003 C.3      31        0    0.0000
    461 C         147.3552  135.7462  135.8681 C.3      31        0    0.0000
    462 C         148.5471  136.3727  135.1333 C.3      31        0    0.0000
    463 C         148.9736  135.6555  133.8461 C.3      31        0    0.0000
    464 C         149.6526  136.5377  136.1964 C.3      31        0    0.0000
    465 C         149.0329  136.0861  137.5316 C.3      31        0    0.0000
    466 C         149.5059  136.8738  138.7558 C.3      31        0    0.0000
    467 H         147.2103  137.2750  137.3892 H        31        0    0.0000
    468 H         146.9416  135.6322  138.0066 H        31        0    0.0000
    469 H         147.3843  134.6515  135.8446 H        31        0    0.0000
    470 H         146.3988  136.0648  135.4417 H        31        0    0.0000
    471 H         148.2438  137.3877  134.8361 H        31        0    0.0000
    472 H         149.6504  136.3088  133.2825 H        31        0    0.0000
    473 H         149.5484  134.7595  134.1088 H        31        0    0.0000
    474 H         149.9553  137.5915  136.2358 H        31        0    0.0000
    475 H         150.5538  135.9573  135.9726 H        31        0    0.0000
    476 H         149.2602  135.0193  137.6718 H        31        0    0.0000
    477 H         149.4230  137.9508  138.5677 H        31        0    0.0000
    478 H         148.8495  136.6514  139.6055 H        31        0    0.0000
    479 C         150.9698  136.5347  139.1540 C.3      32        0    0.0000
    480 C         151.4104  137.1472  140.4912 C.3      32        0    0.0000
    481 H         151.0287  135.4424  139.2440 H        32        0    0.0000
    482 H         151.6490  136.8192  138.3418 H        32        0    0.0000
    483 H         151.4060  138.2427  140.4488 H        32        0    0.0000
    484 H         150.6770  136.8598  141.2554 H        32        0    0.0000
    485 C         154.8511  137.2382  143.9837 C.3      33        0    0.0000
    486 C         153.8978  137.8520  142.9595 C.3      33        0    0.0000
    487 C         152.9418  136.7300  142.5190 C.3      33        0    0.0000
    488 C         152.8080  136.6434  140.9930 C.3      33        0    0.0000
    489 C         153.5050  135.4578  143.1712 C.3      33        0    0.0000
    490 C         154.1865  135.9429  144.4570 C.3      33        0    0.0000
    491 C         153.2189  136.1929  145.6281 C.3      33        0    0.0000
    492 H         155.7991  136.9969  143.4861 H        33        0    0.0000
    493 H         155.0813  137.9314  144.7989 H        33        0    0.0000
    494 H         154.4606  138.2848  142.1252 H        33        0    0.0000
    495 H         153.3232  138.6661  143.4170 H        33        0    0.0000
    496 H         151.9540  136.9388  142.9537 H        33        0    0.0000
    497 H         152.9727  135.6141  140.6539 H        33        0    0.0000
    498 H         153.5862  137.2589  140.5258 H        33        0    0.0000
    499 H         152.7263  134.7108  143.3531 H        33        0    0.0000
    500 H         154.2572  134.9962  142.5184 H        33        0    0.0000
    501 H         154.9561  135.2260  144.7707 H        33        0    0.0000
    502 H         152.6120  137.0887  145.4579 H        33        0    0.0000
    503 H         153.7975  136.3756  146.5417 H        33        0    0.0000
    504 C         148.6554  135.2731  146.8660 C.3      34        0    0.0000
    505 C         149.7657  135.2788  145.8264 C.3      34        0    0.0000
    506 C         151.0336  135.3525  146.6796 C.3      34        0    0.0000
    507 C         152.2865  134.9753  145.8854 C.3      34        0    0.0000
    508 C         150.7258  134.4299  147.8732 C.3      34        0    0.0000
    509 C         149.1884  134.3331  147.9547 C.3      34        0    0.0000
    510 C         148.5889  134.5416  149.3512 C.3      34        0    0.0000
    511 H         147.7072  134.9196  146.4490 H        34        0    0.0000
    512 H         148.4983  136.2908  147.2394 H        34        0    0.0000
    513 H         149.7386  134.3543  145.2368 H        34        0    0.0000
    514 H         149.6793  136.1262  145.1394 H        34        0    0.0000
    515 H         151.1349  136.3803  147.0578 H        34        0    0.0000
    516 H         152.8483  134.1954  146.4130 H        34        0    0.0000
    517 H         151.9888  134.5497  144.9196 H        34        0    0.0000
    518 H         151.1386  133.4257  147.7153 H        34        0    0.0000
    519 H         151.1810  134.8190  148.7901 H        34        0    0.0000
    520 H         148.9222  133.3090  147.6534 H        34        0    0.0000
    521 H         148.4697  133.5669  149.8390 H        34        0    0.0000
    522 H         147.5831  134.9656  149.2469 H        34        0    0.0000
    523 C         148.9877  139.0193  149.0821 C.3      35        0    0.0000
    524 C         148.6264  137.5329  149.0192 C.3      35        0    0.0000
    525 C         149.8329  136.7722  149.5846 C.3      35        0    0.0000
    526 C         149.4264  135.4689  150.2781 C.3      35        0    0.0000
    527 C         150.4961  137.8041  150.5030 C.3      35        0    0.0000
    528 C         150.3975  139.0947  149.6828 C.3      35        0    0.0000
    529 C         150.6201  140.3794  150.4857 C.3      35        0    0.0000
    530 H         148.9587  139.4805  148.0891 H        35        0    0.0000
    531 H         148.2566  139.5465  149.7067 H        35        0    0.0000
    532 H         148.4086  137.2170  147.9933 H        35        0    0.0000
    533 H         147.7230  137.3513  149.6138 H        35        0    0.0000
    534 H         150.5183  136.5505  148.7536 H        35        0    0.0000
    535 H         148.8300  135.7031  151.1679 H        35        0    0.0000
    536 H         150.3154  134.9301  150.6263 H        35        0    0.0000
    537 H         151.5344  137.5421  150.7299 H        35        0    0.0000
    538 H         149.9487  137.8971  151.4493 H        35        0    0.0000
    539 H         151.1242  139.0432  148.8590 H        35        0    0.0000
    540 H         150.0466  141.2052  150.0487 H        35        0    0.0000
    541 H         151.6776  140.6637  150.4280 H        35        0    0.0000
    542 C         147.7067  137.3973  152.3187 C.3      36        0    0.0000
    543 C         148.3463  138.5090  151.4986 C.3      36        0    0.0000
    544 C         149.5878  138.8693  152.3212 C.3      36        0    0.0000
    545 C         150.2335  140.2161  151.9813 C.3      36        0    0.0000
    546 C         149.1669  138.6866  153.7925 C.3      36        0    0.0000
    547 C         147.8324  137.9164  153.7548 C.3      36        0    0.0000
    548 C         147.6458  136.8647  154.8527 C.3      36        0    0.0000
    549 H         146.6642  137.2265  152.0330 H        36        0    0.0000
    550 H         148.2581  136.4626  152.1685 H        36        0    0.0000
    551 H         148.6046  138.1753  150.4889 H        36        0    0.0000
    552 H         147.6511  139.3512  151.4113 H        36        0    0.0000
    553 H         150.3444  138.0982  152.1110 H        36        0    0.0000
    554 H         149.5445  141.0232  152.2572 H        36        0    0.0000
    555 H         151.1333  140.3469  152.5940 H        36        0    0.0000
    556 H         149.0255  139.6383  154.3161 H        36        0    0.0000
    557 H         149.9531  138.1499  154.3343 H        36        0    0.0000
    558 H         147.0341  138.6605  153.8960 H        36        0    0.0000
    559 H         146.5742  136.6799  154.9930 H        36        0    0.0000
    560 H         148.0880  135.9179  154.5210 H        36        0    0.0000
    561 C         147.5884  140.8691  156.7204 C.3      37        0    0.0000
    562 C         147.6458  139.7075  155.7253 C.3      37        0    0.0000
    563 C         148.7054  138.7252  156.2560 C.3      37        0    0.0000
    564 C         148.2704  137.2548  156.2260 C.3      37        0    0.0000
    565 C         149.0042  139.2163  157.6761 C.3      37        0    0.0000
    566 C         148.8353  140.7376  157.6017 C.3      37        0    0.0000
    567 C         150.0726  141.4378  157.0084 C.3      37        0    0.0000
    568 H         147.5054  141.8355  156.2141 H        37        0    0.0000
    569 H         146.6930  140.7552  157.3448 H        37        0    0.0000
    570 H         146.6550  139.2511  155.6243 H        37        0    0.0000
    571 H         147.9382  140.0695  154.7327 H        37        0    0.0000
    572 H         149.6180  138.8442  155.6546 H        37        0    0.0000
    573 H         149.1420  136.6145  156.4063 H        37        0    0.0000
    574 H         147.5545  137.0508  157.0305 H        37        0    0.0000
    575 H         150.0015  138.9152  158.0128 H        37        0    0.0000
    576 H         148.2757  138.8017  158.3849 H        37        0    0.0000
    577 H         148.6367  141.1353  158.6050 H        37        0    0.0000
    578 H         150.1896  141.2007  155.9451 H        37        0    0.0000
    579 H         150.9742  141.0758  157.5166 H        37        0    0.0000
    580 C         146.2994  143.0440  157.9803 C.3      38        0    0.0000
    581 C         147.4323  142.6989  157.0259 C.3      38        0    0.0000
    582 C         148.6149  143.5148  157.5634 C.3      38        0    0.0000
    583 C         150.0033  142.9822  157.1868 C.3      38        0    0.0000
    584 C         148.3563  143.6777  159.0754 C.3      38        0    0.0000
    585 C         146.9865  143.0294  159.3474 C.3      38        0    0.0000
    586 C         146.1494  143.7284  160.4215 C.3      38        0    0.0000
    587 H         145.8980  144.0384  157.7495 H        38        0    0.0000
    588 H         145.4797  142.3214  157.9214 H        38        0    0.0000
    589 H         147.6244  141.6211  157.0602 H        38        0    0.0000
    590 H         147.1900  142.9629  155.9917 H        38        0    0.0000
    591 H         148.5388  144.5197  157.1221 H        38        0    0.0000
    592 H         150.3255  143.4581  156.2529 H        38        0    0.0000
    593 H         150.7233  143.2828  157.9571 H        38        0    0.0000
    594 H         148.3455  144.7466  159.3224 H        38        0    0.0000
    595 H         149.1320  143.2170  159.6960 H        38        0    0.0000
    596 H         147.1542  141.9819  159.6373 H        38        0    0.0000
    597 H         145.9398  144.7627  160.1241 H        38        0    0.0000
    598 H         145.1798  143.2241  160.5103 H        38        0    0.0000
    599 C         144.7029  144.9889  164.6890 C.3      39        0    0.0000
    600 C         145.2327  145.1385  163.2697 C.3      39        0    0.0000
    601 C         145.8739  143.7736  162.9987 C.3      39        0    0.0000
    602 C         146.8424  143.7261  161.8129 C.3      39        0    0.0000
    603 C         146.4580  143.3238  164.3521 C.3      39        0    0.0000
    604 C         145.8483  144.2676  165.4070 C.3      39        0    0.0000
    605 C         145.4794  143.6149  166.7427 C.3      39        0    0.0000
    606 H         144.4768  145.9576  165.1452 H        39        0    0.0000
    607 H         143.7828  144.3942  164.6797 H        39        0    0.0000
    608 H         144.4339  145.3664  162.5571 H        39        0    0.0000
    609 H         145.9648  145.9527  163.2320 H        39        0    0.0000
    610 H         145.0549  143.0780  162.7612 H        39        0    0.0000
    611 H         147.5207  144.5856  161.8700 H        39        0    0.0000
    612 H         147.4652  142.8274  161.8947 H        39        0    0.0000
    613 H         147.5506  143.3918  164.3880 H        39        0    0.0000
    614 H         146.2082  142.2717  164.5271 H        39        0    0.0000
    615 H         146.6127  145.0270  165.6310 H        39        0    0.0000
    616 H         146.3637  143.1120  167.1517 H        39        0    0.0000
    617 H         145.2021  144.3970  167.4594 H        39        0    0.0000
    618 C         145.8375  139.3724  167.7189 C.3      40        0    0.0000
    619 C         146.0846  140.7804  167.1718 C.3      40        0    0.0000
    620 C         144.8295  141.1671  166.3690 C.3      40        0    0.0000
    621 C         144.3145  142.5839  166.6515 C.3      40        0    0.0000
    622 C         143.8004  140.0901  166.7267 C.3      40        0    0.0000
    623 C         144.6311  138.8219  166.9505 C.3      40        0    0.0000
    624 C         145.0185  138.1324  165.6286 C.3      40        0    0.0000
    625 H         146.7308  138.7447  167.6468 H        40        0    0.0000
    626 H         145.5821  139.4470  168.7837 H        40        0    0.0000
    627 H         146.2924  141.4716  167.9960 H        40        0    0.0000
    628 H         146.9625  140.7859  166.5153 H        40        0    0.0000
    629 H         145.0626  141.0743  165.2986 H        40        0    0.0000
    630 H         143.6391  142.8924  165.8446 H        40        0    0.0000
    631 H         143.7304  142.6011  167.5788 H        40        0    0.0000
    632 H         143.0436  139.9702  165.9446 H        40        0    0.0000
    633 H         143.2783  140.3541  167.6555 H        40        0    0.0000
    634 H         144.0679  138.1191  167.5776 H        40        0    0.0000
    635 H         145.8487  137.4328  165.7757 H        40        0    0.0000
    636 H         145.3615  138.8874  164.9112 H        40        0    0.0000
    637 C         140.1419  137.0519  165.4254 C.3      41        0    0.0000
    638 C         141.2824  137.7903  164.7204 C.3      41        0    0.0000
    639 C         142.4895  137.7491  165.6745 C.3      41        0    0.0000
    640 C         143.8139  137.3763  164.9969 C.3      41        0    0.0000
    641 C         142.0857  136.7444  166.7583 C.3      41        0    0.0000
    642 C         140.5678  136.9090  166.8906 C.3      41        0    0.0000
    643 C         140.1818  138.1245  167.7546 C.3      41        0    0.0000
    644 H         139.1829  137.5614  165.2919 H        41        0    0.0000
    645 H         140.0400  136.0533  164.9814 H        41        0    0.0000
    646 H         141.4895  137.3225  163.7516 H        41        0    0.0000
    647 H         140.9991  138.8308  164.5236 H        41        0    0.0000
    648 H         142.5905  138.7372  166.1458 H        41        0    0.0000
    649 H         143.9853  136.2985  165.1029 H        41        0    0.0000
    650 H         143.7665  137.5862  163.9221 H        41        0    0.0000
    651 H         142.6162  136.9211  167.6996 H        41        0    0.0000
    652 H         142.3158  135.7208  166.4352 H        41        0    0.0000
    653 H         140.1357  135.9992  167.3263 H        41        0    0.0000
    654 H         139.4377  137.8520  168.5112 H        41        0    0.0000
    655 H         139.7238  138.8919  167.1193 H        41        0    0.0000
    656 C         139.9825  139.8789  171.6381 C.3      42        0    0.0000
    657 C         141.2606  139.5062  170.8884 C.3      42        0    0.0000
    658 C         141.0338  139.8851  169.4146 C.3      42        0    0.0000
    659 C         141.4216  138.7525  168.4548 C.3      42        0    0.0000
    660 C         139.5538  140.2909  169.3385 C.3      42        0    0.0000
    661 C         139.2268  140.8510  170.7285 C.3      42        0    0.0000
    662 C         139.6815  142.3059  170.9453 C.3      42        0    0.0000
    663 H         139.3782  138.9739  171.7809 H        42        0    0.0000
    664 H         140.1924  140.2874  172.6316 H        42        0    0.0000
    665 H         141.4876  138.4432  171.0254 H        42        0    0.0000
    666 H         142.1118  140.0711  171.2863 H        42        0    0.0000
    667 H         141.6509  140.7677  169.1947 H        42        0    0.0000
    668 H         141.9773  137.9735  168.9897 H        42        0    0.0000
    669 H         142.0931  139.1465  167.6824 H        42        0    0.0000
    670 H         139.3653  141.0060  168.5318 H        42        0    0.0000
    671 H         138.9265  139.4099  169.1498 H        42        0    0.0000
    672 H         138.1491  140.7765  170.9224 H        42        0    0.0000
    673 H         139.5456  142.9041  170.0379 H        42        0    0.0000
    674 H         140.7548  142.3186  171.1708 H        42        0    0.0000
    675 C         138.9336  142.9812  172.1295 C.3      43        0    0.0000
    676 C         139.5317  144.3289  172.5578 C.3      43        0    0.0000
    677 H         137.9033  143.1570  171.7945 H        43        0    0.0000
    678 H         138.8740  142.2849  172.9741 H        43        0    0.0000
    679 H         140.6228  144.3332  172.4506 H        43        0    0.0000
    680 H         139.1470  145.1026  171.8810 H        43        0    0.0000
    681 C         139.1379  141.5090  175.9719 C.3      44        0    0.0000
    682 C         139.2089  142.2552  174.6469 C.3      44        0    0.0000
    683 C         139.4240  143.7079  175.0839 C.3      44        0    0.0000
    684 C         139.1419  144.7655  174.0124 C.3      44        0    0.0000
    685 C         138.6263  143.8599  176.3939 C.3      44        0    0.0000
    686 C         138.2669  142.4276  176.8351 C.3      44        0    0.0000
    687 C         138.3290  142.1660  178.3431 C.3      44        0    0.0000
    688 H         138.6980  140.5135  175.8574 H        44        0    0.0000
    689 H         140.1460  141.3901  176.3841 H        44        0    0.0000
    690 H         140.0251  141.8906  174.0156 H        44        0    0.0000
    691 H         138.2698  142.1247  174.0980 H        44        0    0.0000
    692 H         140.4876  143.8072  175.3485 H        44        0    0.0000
    693 H         138.0750  145.0177  174.0305 H        44        0    0.0000
    694 H         139.6869  145.6835  174.2626 H        44        0    0.0000
    695 H         137.7090  144.4452  176.2682 H        44        0    0.0000
    696 H         139.2340  144.3932  177.1328 H        44        0    0.0000
    697 H         137.2233  142.2558  176.5310 H        44        0    0.0000
    698 H         137.5019  141.5041  178.6260 H        44        0    0.0000
    699 H         139.2561  141.6288  178.5758 H        44        0    0.0000
    700 C         136.0796  145.8772  177.3263 C.3      45        0    0.0000
    701 C         136.7444  144.5053  177.4668 C.3      45        0    0.0000
    702 C         137.9504  144.7042  178.3942 C.3      45        0    0.0000
    703 C         138.2626  143.4527  179.2195 C.3      45        0    0.0000
    704 C         137.5551  145.9321  179.2212 C.3      45        0    0.0000
    705 C         136.9117  146.8479  178.1746 C.3      45        0    0.0000
    706 C         136.0665  147.9851  178.7551 C.3      45        0    0.0000
    707 H         136.0453  146.2000  176.2802 H        45        0    0.0000
    708 H         135.0441  145.8192  177.6825 H        45        0    0.0000
    709 H         137.0577  144.1109  176.4942 H        45        0    0.0000
    710 H         136.0259  143.7932  177.8900 H        45        0    0.0000
    711 H         138.8205  144.9644  177.7739 H        45        0    0.0000
    712 H         137.4842  143.3170  179.9798 H        45        0    0.0000
    713 H         139.2103  143.5779  179.7563 H        45        0    0.0000
    714 H         138.4221  146.4010  179.6973 H        45        0    0.0000
    715 H         136.8348  145.6633  180.0040 H        45        0    0.0000
    716 H         137.7056  147.2651  177.5381 H        45        0    0.0000
    717 H         135.1326  148.0910  178.1909 H        45        0    0.0000
    718 H         136.6100  148.9314  178.6472 H        45        0    0.0000
    719 C         132.6457  149.6430  181.3854 C.3      46        0    0.0000
    720 C         133.4507  148.9840  180.2757 C.3      46        0    0.0000
    721 C         134.8566  148.8617  180.8768 C.3      46        0    0.0000
    722 C         135.7408  147.7711  180.2588 C.3      46        0    0.0000
    723 C         134.6507  148.7611  182.4023 C.3      46        0    0.0000
    724 C         133.1380  148.9207  182.6412 C.3      46        0    0.0000
    725 C         132.7680  149.6727  183.9220 C.3      46        0    0.0000
    726 H         132.8704  150.7156  181.4319 H        46        0    0.0000
    727 H         131.5682  149.5247  181.2355 H        46        0    0.0000
    728 H         133.0161  148.0069  180.0389 H        46        0    0.0000
    729 H         133.4486  149.5822  179.3591 H        46        0    0.0000
    730 H         135.3693  149.8174  180.6919 H        46        0    0.0000
    731 H         136.6827  147.7177  180.8176 H        46        0    0.0000
    732 H         135.2482  146.7991  180.3800 H        46        0    0.0000
    733 H         135.2166  149.5632  182.8924 H        46        0    0.0000
    734 H         135.0109  147.8165  182.8231 H        46        0    0.0000
    735 H         132.6863  147.9182  182.6611 H        46        0    0.0000
    736 H         132.8824  150.7529  183.7728 H        46        0    0.0000
    737 H         131.7104  149.4972  184.1524 H        46        0    0.0000
    738 C         131.6211  146.2357  186.3505 C.3      47        0    0.0000
    739 C         131.8544  147.3501  185.3400 C.3      47        0    0.0000
    740 C         133.2538  147.8556  185.7058 C.3      47        0    0.0000
    741 C         133.6244  149.2306  185.1416 C.3      47        0    0.0000
    742 C         133.3468  147.7191  187.2382 C.3      47        0    0.0000
    743 C         132.1509  146.8406  187.6547 C.3      47        0    0.0000
    744 C         132.4279  145.8383  188.7794 C.3      47        0    0.0000
    745 H         130.5633  145.9643  186.4229 H        47        0    0.0000
    746 H         132.1818  145.3428  186.0526 H        47        0    0.0000
    747 H         131.8056  146.9845  184.3096 H        47        0    0.0000
    748 H         131.0908  148.1262  185.4622 H        47        0    0.0000
    749 H         133.9729  147.1393  185.2806 H        47        0    0.0000
    750 H         133.5231  149.9818  185.9339 H        47        0    0.0000
    751 H         134.6804  149.2242  184.8467 H        47        0    0.0000
    752 H         133.2907  148.6829  187.7556 H        47        0    0.0000
    753 H         134.3128  147.2792  187.5085 H        47        0    0.0000
    754 H         131.3728  147.5229  188.0290 H        47        0    0.0000
    755 H         131.7538  144.9806  188.6687 H        47        0    0.0000
    756 H         133.4487  145.4526  188.6725 H        47        0    0.0000
    757 C         131.7506  150.1683  189.9529 C.3      48        0    0.0000
    758 C         131.8013  148.8004  189.2896 C.3      48        0    0.0000
    759 C         132.5328  147.9297  190.3191 C.3      48        0    0.0000
    760 C         132.2617  146.4235  190.2140 C.3      48        0    0.0000
    761 C         132.2282  148.5628  191.6924 C.3      48        0    0.0000
    762 C         131.4057  149.8323  191.4052 C.3      48        0    0.0000
    763 C         131.6850  151.0035  192.3504 C.3      48        0    0.0000
    764 H         132.7279  150.6612  189.8819 H        48        0    0.0000
    765 H         131.0034  150.8204  189.4903 H        48        0    0.0000
    766 H         130.7819  148.4475  189.0999 H        48        0    0.0000
    767 H         132.3289  148.8305  188.3311 H        48        0    0.0000
    768 H         133.6109  148.0631  190.1445 H        48        0    0.0000
    769 H         132.9412  145.8917  190.8907 H        48        0    0.0000
    770 H         131.2437  146.2174  190.5653 H        48        0    0.0000
    771 H         133.1747  148.8074  192.1904 H        48        0    0.0000
    772 H         131.6815  147.8916  192.3631 H        48        0    0.0000
    773 H         130.3392  149.5684  191.4536 H        48        0    0.0000
    774 H         132.6079  151.5163  192.0548 H        48        0    0.0000
    775 H         130.8757  151.7384  192.2656 H        48        0    0.0000
    776 C         132.5627  147.7188  195.2983 C.3      49        0    0.0000
    777 C         131.9738  148.0263  193.9189 C.3      49        0    0.0000
    778 C         131.0513  149.2370  194.0976 C.3      49        0    0.0000
    779 C         131.8001  150.5572  193.8351 C.3      49        0    0.0000
    780 C         130.5642  149.0593  195.5414 C.3      49        0    0.0000
    781 C         131.8069  148.5990  196.3076 C.3      49        0    0.0000
    782 C         131.4536  147.8962  197.6233 C.3      49        0    0.0000
    783 H         132.4586  146.6496  195.5150 H        49        0    0.0000
    784 H         133.6335  147.9516  195.3208 H        49        0    0.0000
    785 H         131.3804  147.1646  193.5878 H        49        0    0.0000
    786 H         132.7540  148.1852  193.1674 H        49        0    0.0000
    787 H         130.2038  149.1645  193.4039 H        49        0    0.0000
    788 H         132.8624  150.4222  194.0721 H        49        0    0.0000
    789 H         131.4342  151.3579  194.4866 H        49        0    0.0000
    790 H         129.7897  148.2816  195.5703 H        49        0    0.0000
    791 H         130.1325  149.9673  195.9727 H        49        0    0.0000
    792 H         132.4245  149.4809  196.5283 H        49        0    0.0000
    793 H         131.3924  148.6246  198.4402 H        49        0    0.0000
    794 H         132.2513  147.1911  197.8850 H        49        0    0.0000
    795 C         130.1115  147.1162  197.5203 C.3      50        0    0.0000
    796 C         129.7721  146.2909  198.7698 C.3      50        0    0.0000
    797 H         129.3203  147.8641  197.3811 H        50        0    0.0000
    798 H         130.1150  146.4922  196.6190 H        50        0    0.0000
    799 H         128.7759  146.5399  199.1539 H        50        0    0.0000
    800 H         129.7414  145.2326  198.4807 H        50        0    0.0000
    801 C         130.9791  144.1600  202.9622 C.3      51        0    0.0000
    802 C         131.4725  145.3878  202.2121 C.3      51        0    0.0000
    803 C         130.9847  145.1514  200.7771 C.3      51        0    0.0000
    804 C         130.8287  146.4151  199.9216 C.3      51        0    0.0000
    805 C         129.7194  144.2785  200.9053 C.3      51        0    0.0000
    806 C         129.5681  143.9619  202.4044 C.3      51        0    0.0000
    807 C         129.0166  142.5675  202.7118 C.3      51        0    0.0000
    808 H         131.6178  143.2967  202.7392 H        51        0    0.0000
    809 H         130.9779  144.3148  204.0455 H        51        0    0.0000
    810 H         131.0332  146.2883  202.6547 H        51        0    0.0000
    811 H         132.5614  145.4872  202.2626 H        51        0    0.0000
    812 H         131.7442  144.5314  200.2778 H        51        0    0.0000
    813 H         130.5432  147.2513  200.5710 H        51        0    0.0000
    814 H         131.8005  146.6742  199.4850 H        51        0    0.0000
    815 H         129.8572  143.3620  200.3181 H        51        0    0.0000
    816 H         128.8187  144.7685  200.5209 H        51        0    0.0000
    817 H         128.9114  144.7225  202.8511 H        51        0    0.0000
    818 H         128.0622  142.6474  203.2455 H        51        0    0.0000
    819 H         128.8079  142.0449  201.7707 H        51        0    0.0000
    820 C         131.5349  140.8223  206.3171 C.3      52        0    0.0000
    821 C         130.2511  141.6211  206.0763 C.3      52        0    0.0000
    822 C         130.4850  142.4531  204.8107 C.3      52        0    0.0000
    823 C         130.0026  141.7080  203.5518 C.3      52        0    0.0000
    824 C         131.9984  142.6985  204.8627 C.3      52        0    0.0000
    825 C         132.5837  141.3640  205.3316 C.3      52        0    0.0000
    826 C         133.9896  141.5194  205.9224 C.3      52        0    0.0000
    827 H         131.8473  140.9301  207.3620 H        52        0    0.0000
    828 H         131.3637  139.7546  206.1382 H        52        0    0.0000
    829 H         130.0890  142.2945  206.9276 H        52        0    0.0000
    830 H         129.3720  140.9719  206.0100 H        52        0    0.0000
    831 H         129.9472  143.4068  204.8879 H        52        0    0.0000
    832 H         129.4865  140.7884  203.8530 H        52        0    0.0000
    833 H         130.8460  141.4013  202.9240 H        52        0    0.0000
    834 H         132.2135  143.4868  205.5960 H        52        0    0.0000
    835 H         132.4236  143.0164  203.9061 H        52        0    0.0000
    836 H         132.6318  140.6844  204.4691 H        52        0    0.0000
    837 H         134.7066  141.7832  205.1362 H        52        0    0.0000
    838 H         134.3162  140.5606  206.3420 H        52        0    0.0000
    839 C         134.0296  142.5956  207.0452 C.3      53        0    0.0000
    840 C         135.4016  142.7440  207.7184 C.3      53        0    0.0000
    841 H         133.3073  142.2825  207.8099 H        53        0    0.0000
    842 H         133.6729  143.5543  206.6509 H        53        0    0.0000
    843 H         135.6485  141.7902  208.2019 H        53        0    0.0000
    844 H         136.1895  142.9344  206.9802 H        53        0    0.0000
    845 C         138.9610  145.1292  209.3218 C.3      54        0    0.0000
    846 C         137.8123  144.6772  208.4332 C.3      54        0    0.0000
    847 C         136.8485  144.0231  209.4253 C.3      54        0    0.0000
    848 C         135.4474  143.8432  208.8356 C.3      54        0    0.0000
    849 C         136.9147  144.9412  210.6595 C.3      54        0    0.0000
    850 C         138.2549  145.6985  210.5588 C.3      54        0    0.0000
    851 C         139.0962  145.7208  211.8412 C.3      54        0    0.0000
    852 H         139.5888  145.8779  208.8287 H        54        0    0.0000
    853 H         139.5945  144.2697  209.5666 H        54        0    0.0000
    854 H         137.3489  145.5418  207.9425 H        54        0    0.0000
    855 H         138.1441  143.9801  207.6576 H        54        0    0.0000
    856 H         137.2570  143.0413  209.7058 H        54        0    0.0000
    857 H         134.7344  143.5836  209.6271 H        54        0    0.0000
    858 H         135.1096  144.7946  208.4076 H        54        0    0.0000
    859 H         136.0930  145.6682  210.6578 H        54        0    0.0000
    860 H         136.8193  144.3575  211.5811 H        54        0    0.0000
    861 H         138.0067  146.7464  210.3332 H        54        0    0.0000
    862 H         139.8998  146.4584  211.7297 H        54        0    0.0000
    863 H         139.5807  144.7450  211.9658 H        54        0    0.0000
    864 C         134.7451  147.3770  213.0668 C.3      55        0    0.0000
    865 C         135.7603  146.3240  212.6496 C.3      55        0    0.0000
    866 C         137.1102  147.0008  212.9193 C.3      55        0    0.0000
    867 C         138.2911  146.0452  213.1323 C.3      55        0    0.0000
    868 C         136.8536  148.0016  214.0648 C.3      55        0    0.0000
    869 C         135.3436  147.9372  214.3587 C.3      55        0    0.0000
    870 C         134.7112  149.2734  214.7559 C.3      55        0    0.0000
    871 H         134.6664  148.1546  212.2973 H        55        0    0.0000
    872 H         133.7507  146.9480  213.2234 H        55        0    0.0000
    873 H         135.6220  145.4220  213.2554 H        55        0    0.0000
    874 H         135.6473  146.0416  211.5982 H        55        0    0.0000
    875 H         137.3531  147.5992  212.0285 H        55        0    0.0000
    876 H         138.9737  146.4824  213.8708 H        55        0    0.0000
    877 H         137.9202  145.1079  213.5638 H        55        0    0.0000
    878 H         137.1513  149.0049  213.7354 H        55        0    0.0000
    879 H         137.4329  147.7795  214.9671 H        55        0    0.0000
    880 H         135.1813  147.2021  215.1605 H        55        0    0.0000
    881 H         134.4479  149.8483  213.8602 H        55        0    0.0000
    882 H         133.7753  149.0851  215.2953 H        55        0    0.0000
    883 C         135.6436  150.1296  215.6582 C.3      56        0    0.0000
    884 C         135.2206  150.1680  217.1336 C.3      56        0    0.0000
    885 H         135.6088  151.1546  215.2673 H        56        0    0.0000
    886 H         136.6794  149.7876  215.5489 H        56        0    0.0000
    887 H         135.2159  151.2161  217.4593 H        56        0    0.0000
    888 H         134.1984  149.7943  217.2654 H        56        0    0.0000
    889 C         138.2829  147.4874  215.6984 C.3      57        0    0.0000
    890 C         136.9331  148.1614  215.9565 C.3      57        0    0.0000
    891 C         136.6873  148.0877  217.4741 C.3      57        0    0.0000
    892 C         136.1921  149.3997  218.0951 C.3      57        0    0.0000
    893 C         138.0304  147.6367  218.0571 C.3      57        0    0.0000
    894 C         138.6313  146.7252  216.9816 C.3      57        0    0.0000
    895 C         138.0409  145.3029  217.0201 C.3      57        0    0.0000
    896 H         138.2596  146.8582  214.8036 H        57        0    0.0000
    897 H         139.0384  148.2646  215.5255 H        57        0    0.0000
    898 H         136.9487  149.1891  215.5772 H        57        0    0.0000
    899 H         136.1344  147.6319  215.4241 H        57        0    0.0000
    900 H         135.9490  147.2960  217.6659 H        57        0    0.0000
    901 H         135.6582  149.1813  219.0276 H        57        0    0.0000
    902 H         137.0398  150.0430  218.3576 H        57        0    0.0000
    903 H         137.9105  147.1338  219.0222 H        57        0    0.0000
    904 H         138.6886  148.5012  218.2134 H        57        0    0.0000
    905 H         139.7198  146.6725  217.1102 H        57        0    0.0000
    906 H         138.6294  144.6134  216.4048 H        57        0    0.0000
    907 H         137.0276  145.3180  216.6013 H        57        0    0.0000
    908 C         137.9561  144.7519  218.4731 C.3      58        0    0.0000
    909 C         138.8233  143.5092  218.7206 C.3      58        0    0.0000
    910 H         138.3100  145.5516  219.1363 H        58        0    0.0000
    911 H         136.9084  144.5663  218.7372 H        58        0    0.0000
    912 H         138.2645  142.5870  218.5226 H        58        0    0.0000
    913 H         139.6581  143.5293  218.0085 H        58        0    0.0000
    914 C         138.9584  146.6901  220.2947 C.3      59        0    0.0000
    915 C         139.9877  145.8499  219.5340 C.3      59        0    0.0000
    916 C         140.3460  144.6693  220.4433 C.3      59        0    0.0000
    917 C         139.4534  143.4475  220.1551 C.3      59        0    0.0000
    918 C         140.1634  145.2738  221.8413 C.3      59        0    0.0000
    919 C         138.8976  146.1265  221.7242 C.3      59        0    0.0000
    920 C         138.8081  147.1913  222.8232 C.3      59        0    0.0000
    921 H         139.2535  147.7453  220.2730 H        59        0    0.0000
    922 H         137.9742  146.6186  219.8177 H        59        0    0.0000
    923 H         140.8839  146.4594  219.3619 H        59        0    0.0000
    924 H         139.6173  145.5410  218.5512 H        59        0    0.0000
    925 H         141.3956  144.3873  220.2904 H        59        0    0.0000
    926 H         138.6379  143.4162  220.8878 H        59        0    0.0000
    927 H         140.0114  142.5120  220.2690 H        59        0    0.0000
    928 H         141.0281  145.9072  222.0790 H        59        0    0.0000
    929 H         140.0784  144.5249  222.6344 H        59        0    0.0000
    930 H         138.0245  145.4630  221.7977 H        59        0    0.0000
    931 H         137.7711  147.3057  223.1598 H        59        0    0.0000
    932 H         139.1193  148.1609  222.4169 H        59        0    0.0000
    933 C         140.8243  143.2591  224.5504 C.3      60        0    0.0000
    934 C         140.5762  144.4372  223.6209 C.3      60        0    0.0000
    935 C         139.6841  145.3680  224.4520 C.3      60        0    0.0000
    936 C         139.7145  146.8452  224.0393 C.3      60        0    0.0000
    937 C         140.0438  145.0848  225.9250 C.3      60        0    0.0000
    938 C         141.0667  143.9342  225.9020 C.3      60        0    0.0000
    939 C         140.9492  142.9497  227.0682 C.3      60        0    0.0000
    940 H         139.9408  142.6100  224.5849 H        60        0    0.0000
    941 H         141.6797  142.6569  224.2293 H        60        0    0.0000
    942 H         141.5316  144.9050  223.3598 H        60        0    0.0000
    943 H         140.0897  144.1280  222.6904 H        60        0    0.0000
    944 H         138.6470  145.0287  224.3116 H        60        0    0.0000
    945 H         139.4054  147.4595  224.8934 H        60        0    0.0000
    946 H         140.7469  147.1304  223.8047 H        60        0    0.0000
    947 H         139.1337  144.7959  226.4654 H        60        0    0.0000
    948 H         140.4557  145.9578  226.4422 H        60        0    0.0000
    949 H         142.0755  144.3721  225.8921 H        60        0    0.0000
    950 H         140.8417  141.9262  226.6898 H        60        0    0.0000
    951 H         141.8746  142.9722  227.6560 H        60        0    0.0000
    952 C         141.8807  142.3204  230.9713 C.3      61        0    0.0000
    953 C         141.2755  142.0020  229.6016 C.3      61        0    0.0000
    954 C         140.0336  142.8921  229.4621 C.3      61        0    0.0000
    955 C         139.7538  143.2768  228.0066 C.3      61        0    0.0000
    956 C         140.3466  144.0738  230.3860 C.3      61        0    0.0000
    957 C         140.9793  143.3896  231.6023 C.3      61        0    0.0000
    958 C         141.7531  144.3287  232.5318 C.3      61        0    0.0000
    959 H         141.9324  141.4273  231.6034 H        61        0    0.0000
    960 H         142.9063  142.6860  230.8411 H        61        0    0.0000
    961 H         141.0108  140.9425  229.5176 H        61        0    0.0000
    962 H         142.0125  142.2157  228.8182 H        61        0    0.0000
    963 H         139.1721  142.3450  229.8719 H        61        0    0.0000
    964 H         139.5499  144.3527  227.9494 H        61        0    0.0000
    965 H         138.8547  142.7650  227.6441 H        61        0    0.0000
    966 H         139.4447  144.6331  230.6545 H        61        0    0.0000
    967 H         141.0540  144.7661  229.9125 H        61        0    0.0000
    968 H         140.1871  142.8789  232.1690 H        61        0    0.0000
    969 H         141.1132  145.1593  232.8519 H        61        0    0.0000
    970 H         142.5932  144.7704  231.9824 H        61        0    0.0000
    971 C         142.3117  143.5948  233.7817 C.3      62        0    0.0000
    972 C         142.0958  144.3536  235.0990 C.3      62        0    0.0000
    973 H         141.7811  142.6365  233.8499 H        62        0    0.0000
    974 H         143.3707  143.3564  233.6277 H        62        0    0.0000
    975 H         142.7135  145.2582  235.1441 H        62        0    0.0000
    976 H         141.0503  144.6856  235.1332 H        62        0    0.0000
    977 C         142.1887  139.8318  236.0528 C.3      63        0    0.0000
    978 C         142.0732  141.1733  235.3307 C.3      63        0    0.0000
    979 C         143.0166  142.1478  236.0570 C.3      63        0    0.0000
    980 C         142.3370  143.4846  236.3817 C.3      63        0    0.0000
    981 C         143.5006  141.3749  237.2936 C.3      63        0    0.0000
    982 C         143.4818  139.9009  236.8694 C.3      63        0    0.0000
    983 C         144.7043  139.4677  236.0399 C.3      63        0    0.0000
    984 H         141.3361  139.7215  236.7351 H        63        0    0.0000
    985 H         142.1582  138.9865  235.3582 H        63        0    0.0000
    986 H         141.0321  141.5141  235.3223 H        63        0    0.0000
    987 H         142.3863  141.0690  234.2852 H        63        0    0.0000
    988 H         143.8784  142.3344  235.4009 H        63        0    0.0000
    989 H         142.9363  144.0510  237.1039 H        63        0    0.0000
    990 H         141.3676  143.2919  236.8568 H        63        0    0.0000
    991 H         144.4859  141.7130  237.6291 H        63        0    0.0000
    992 H         142.8025  141.5170  238.1289 H        63        0    0.0000
    993 H         143.3964  139.2544  237.7522 H        63        0    0.0000
    994 H         144.8059  140.0756  235.1345 H        63        0    0.0000
    995 H         144.5660  138.4316  235.7075 H        63        0    0.0000
    996 C         144.3524  139.5732  240.2443 C.3      64        0    0.0000
    997 C         144.3248  139.8375  238.7366 C.3      64        0    0.0000
    998 C         145.7869  140.0030  238.3016 C.3      64        0    0.0000
    999 C         146.0222  139.5366  236.8623 C.3      64        0    0.0000
   1000 C         146.5578  139.2115  239.3633 C.3      64        0    0.0000
   1001 C         145.8300  139.5900  240.6575 C.3      64        0    0.0000
   1002 C         146.1134  138.6637  241.8433 C.3      64        0    0.0000
   1003 H         143.7823  140.3300  240.7938 H        64        0    0.0000
   1004 H         143.8884  138.6018  240.4532 H        64        0    0.0000
   1005 H         143.7403  140.7325  238.4978 H        64        0    0.0000
   1006 H         143.8476  138.9921  238.2265 H        64        0    0.0000
   1007 H         146.0536  141.0659  238.3940 H        64        0    0.0000
   1008 H         146.4780  138.5394  236.8748 H        64        0    0.0000
   1009 H         146.7325  140.2024  236.3582 H        64        0    0.0000
   1010 H         147.6160  139.4901  239.3928 H        64        0    0.0000
   1011 H         146.4899  138.1327  239.1755 H        64        0    0.0000
   1012 H         146.0998  140.6228  240.9225 H        64        0    0.0000
   1013 H         146.1980  137.6251  241.5027 H        64        0    0.0000
   1014 H         145.2680  138.6996  242.5408 H        64        0    0.0000
   1015 C         147.4038  139.0632  242.6101 C.3      65        0    0.0000
   1016 C         147.5826  138.3373  243.9512 C.3      65        0    0.0000
   1017 H         147.3317  140.1395  242.8125 H        65        0    0.0000
   1018 H         148.2769  138.9240  241.9617 H        65        0    0.0000
   1019 H         146.7464  138.6179  244.6043 H        65        0    0.0000
   1020 H         147.5310  137.2493  243.8259 H        65        0    0.0000
   1021 C         149.9552  135.7288  246.6388 C.3      66        0    0.0000
   1022 C         148.8222  136.4172  245.8736 C.3      66        0    0.0000
   1023 C         149.0497  137.9325  246.0197 C.3      66        0    0.0000
   1024 C         148.8993  138.7196  244.7121 C.3      66        0    0.0000
   1025 C         150.4568  138.0520  246.6140 C.3      66        0    0.0000
   1026 C         150.6060  136.8134  247.5040 C.3      66        0    0.0000
   1027 C         149.9214  136.9878  248.8730 C.3      66        0    0.0000
   1028 H         149.5966  134.8659  247.2081 H        66        0    0.0000
   1029 H         150.6922  135.3541  245.9170 H        66        0    0.0000
   1030 H         148.8198  136.0859  244.8294 H        66        0    0.0000
   1031 H         147.8511  136.1438  246.3024 H        66        0    0.0000
   1032 H         148.3333  138.3192  246.7585 H        66        0    0.0000
   1033 H         148.8731  139.7929  244.9352 H        66        0    0.0000
   1034 H         149.7656  138.5513  244.0620 H        66        0    0.0000
   1035 H         150.5916  138.9893  247.1635 H        66        0    0.0000
   1036 H         151.2116  138.0231  245.8174 H        66        0    0.0000
   1037 H         151.6709  136.5940  247.6535 H        66        0    0.0000
   1038 H         150.3990  136.3640  249.6366 H        66        0    0.0000
   1039 H         148.8772  136.6609  248.8019 H        66        0    0.0000
   1040 C         151.1409  139.1193  245.9344 C.3      67        0    0.0000
   1041 C         149.9870  139.2881  246.9216 C.3      67        0    0.0000
   1042 C         150.6162  139.3949  248.3214 C.3      67        0    0.0000
   1043 C         149.9334  138.4724  249.3398 C.3      67        0    0.0000
   1044 C         152.1070  139.0928  248.1041 C.3      67        0    0.0000
   1045 C         152.4017  139.5700  246.6764 C.3      67        0    0.0000
   1046 C         152.6247  141.0883  246.5522 C.3      67        0    0.0000
   1047 H         151.2343  138.0566  245.6761 H        67        0    0.0000
   1048 H         150.9674  139.6646  245.0013 H        67        0    0.0000
   1049 H         149.2832  138.4532  246.8329 H        67        0    0.0000
   1050 H         149.4286  140.2049  246.6986 H        67        0    0.0000
   1051 H         150.5151  140.4364  248.6578 H        67        0    0.0000
   1052 H         148.9072  138.8078  249.5294 H        67        0    0.0000
   1053 H         150.4673  138.5305  250.2959 H        67        0    0.0000
   1054 H         152.7375  139.5754  248.8573 H        67        0    0.0000
   1055 H         152.2896  138.0121  248.1663 H        67        0    0.0000
   1056 H         153.2758  139.0422  246.2741 H        67        0    0.0000
   1057 H         153.2519  141.4659  247.3669 H        67        0    0.0000
   1058 H         151.6596  141.6028  246.6359 H        67        0    0.0000
   1059 C         153.2588  141.4757  245.1864 C.3      68        0    0.0000
   1060 C         152.2335  141.7300  244.0722 C.3      68        0    0.0000
   1061 H         153.8210  142.4040  245.3500 H        68        0    0.0000
   1062 H         153.9900  140.7147  244.8894 H        68        0    0.0000
   1063 H         151.2505  141.9849  244.4854 H        68        0    0.0000
   1064 H         152.5669  142.6021  243.4952 H        68        0    0.0000
   1065 C         154.6611  138.7689  244.0618 C.3      69        0    0.0000
   1066 C         154.5648  140.1820  243.4803 C.3      69        0    0.0000
   1067 C         153.4424  140.1497  242.4372 C.3      69        0    0.0000
   1068 C         152.0885  140.5439  243.0569 C.3      69        0    0.0000
   1069 C         153.5133  138.7024  241.9338 C.3      69        0    0.0000
   1070 C         153.7597  137.8727  243.1964 C.3      69        0    0.0000
   1071 C         154.3499  136.4934  242.8817 C.3      69        0    0.0000
   1072 H         155.7060  138.4383  244.0595 H        69        0    0.0000
   1073 H         154.3192  138.7565  245.1030 H        69        0    0.0000
   1074 H         155.5130  140.4256  242.9845 H        69        0    0.0000
   1075 H         154.4086  140.9350  244.2595 H        69        0    0.0000
   1076 H         153.6749  140.8435  241.6191 H        69        0    0.0000
   1077 H         151.6727  139.6818  243.5924 H        69        0    0.0000
   1078 H         151.3605  140.8119  242.2837 H        69        0    0.0000
   1079 H         154.3583  138.5999  241.2404 H        69        0    0.0000
   1080 H         152.6131  138.3789  241.4028 H        69        0    0.0000
   1081 H         152.8008  137.7406  243.7171 H        69        0    0.0000
   1082 H         154.0984  135.7809  243.6759 H        69        0    0.0000
   1083 H         155.4436  136.5636  242.8521 H        69        0    0.0000
   1084 C         150.6238  137.5886  240.3483 C.3      70        0    0.0000
   1085 C         151.4842  137.0067  241.4612 C.3      70        0    0.0000
   1086 C         152.8568  136.8678  240.7946 C.3      70        0    0.0000
   1087 C         153.8471  135.9473  241.5145 C.3      70        0    0.0000
   1088 C         152.5600  136.5058  239.3262 C.3      70        0    0.0000
   1089 C         151.0568  136.7782  239.1222 C.3      70        0    0.0000
   1090 C         150.6727  137.3802  237.7671 C.3      70        0    0.0000
   1091 H         149.5552  137.4784  240.5577 H        70        0    0.0000
   1092 H         150.8396  138.6566  240.2338 H        70        0    0.0000
   1093 H         151.5170  137.6615  242.3375 H        70        0    0.0000
   1094 H         151.0785  136.0386  241.7748 H        70        0    0.0000
   1095 H         153.3108  137.8703  240.7873 H        70        0    0.0000
   1096 H         153.3752  134.9710  241.6772 H        70        0    0.0000
   1097 H         154.7130  135.7741  240.8645 H        70        0    0.0000
   1098 H         152.7769  135.4576  239.0939 H        70        0    0.0000
   1099 H         153.1950  137.1061  238.6657 H        70        0    0.0000
   1100 H         150.5477  135.8048  239.1873 H        70        0    0.0000
   1101 H         149.7017  136.9755  237.4579 H        70        0    0.0000
   1102 H         150.5412  138.4628  237.8802 H        70        0    0.0000
   1103 C         151.7086  137.1176  236.6330 C.3      71        0    0.0000
   1104 C         151.0874  136.5972  235.3289 C.3      71        0    0.0000
   1105 H         152.4023  136.3543  237.0081 H        71        0    0.0000
   1106 H         152.3026  138.0224  236.4586 H        71        0    0.0000
   1107 H         150.4174  135.7647  235.5795 H        71        0    0.0000
   1108 H         150.4684  137.3638  234.8482 H        71        0    0.0000
   1109 C         152.1341  136.0424  234.3016 C.3      72        0    0.0000
   1110 C         152.0375  136.6786  232.9076 C.3      72        0    0.0000
   1111 H         151.9386  134.9673  234.1995 H        72        0    0.0000
   1112 H         153.1448  136.1393  234.7152 H        72        0    0.0000
   1113 H         151.1530  136.2659  232.4056 H        72        0    0.0000
   1114 H         151.8837  137.7621  232.9733 H        72        0    0.0000
   1115 C         154.1852  132.7295  232.2928 C.3      73        0    0.0000
   1116 C         153.2351  133.8972  232.5709 C.3      73        0    0.0000
   1117 C         154.0807  135.1736  232.4709 C.3      73        0    0.0000
   1118 C         153.2663  136.3746  231.9821 C.3      73        0    0.0000
   1119 C         155.2276  134.7597  231.5429 C.3      73        0    0.0000
   1120 C         155.5653  133.3489  232.0364 C.3      73        0    0.0000
   1121 C         156.4052  132.5166  231.0635 C.3      73        0    0.0000
   1122 H         154.2186  132.0312  233.1360 H        73        0    0.0000
   1123 H         153.8287  132.1687  231.4205 H        73        0    0.0000
   1124 H         152.7718  133.8096  233.5595 H        73        0    0.0000
   1125 H         152.4255  133.8933  231.8312 H        73        0    0.0000
   1126 H         154.4953  135.3888  233.4665 H        73        0    0.0000
   1127 H         152.8983  136.1741  230.9687 H        73        0    0.0000
   1128 H         153.9030  137.2646  231.9168 H        73        0    0.0000
   1129 H         156.0838  135.4370  231.6236 H        73        0    0.0000
   1130 H         154.8992  134.7416  230.4962 H        73        0    0.0000
   1131 H         156.0887  133.4303  233.0002 H        73        0    0.0000
   1132 H         155.8757  131.5944  230.7969 H        73        0    0.0000
   1133 H         157.3371  132.2148  231.5564 H        73        0    0.0000
   1134 C         154.5144  136.2885  229.0887 C.3      74        0    0.0000
   1135 C         154.6927  134.8370  229.5114 C.3      74        0    0.0000
   1136 C         156.2059  134.7270  229.7260 C.3      74        0    0.0000
   1137 C         156.7616  133.3003  229.7706 C.3      74        0    0.0000
   1138 C         156.8344  135.6521  228.6655 C.3      74        0    0.0000
   1139 C         155.6760  136.5056  228.1134 C.3      74        0    0.0000
   1140 C         156.0180  137.9683  227.8135 C.3      74        0    0.0000
   1141 H         153.5426  136.4601  228.6156 H        74        0    0.0000
   1142 H         154.5856  136.9408  229.9661 H        74        0    0.0000
   1143 H         154.1304  134.6039  230.4208 H        74        0    0.0000
   1144 H         154.3403  134.1735  228.7140 H        74        0    0.0000
   1145 H         156.4225  135.1775  230.7064 H        74        0    0.0000
   1146 H         156.3850  132.7422  228.9052 H        74        0    0.0000
   1147 H         157.8529  133.3375  229.6708 H        74        0    0.0000
   1148 H         157.3059  135.1004  227.8450 H        74        0    0.0000
   1149 H         157.6245  136.2542  229.1270 H        74        0    0.0000
   1150 H         155.3776  136.0520  227.1561 H        74        0    0.0000
   1151 H         155.4294  138.3041  226.9515 H        74        0    0.0000
   1152 H         155.7133  138.5893  228.6642 H        74        0    0.0000
   1153 C         157.5266  138.2260  227.5206 C.3      75        0    0.0000
   1154 C         157.7978  138.8414  226.1402 C.3      75        0    0.0000
   1155 H         157.8815  138.9310  228.2832 H        75        0    0.0000
   1156 H         158.0942  137.2989  227.6625 H        75        0    0.0000
   1157 H         156.9659  138.6563  225.4506 H        75        0    0.0000
   1158 H         157.8692  139.9299  226.2608 H        75        0    0.0000
   1159 C         158.7290  136.8062  222.1900 C.3      76        0    0.0000
   1160 C         158.0435  137.5624  223.3270 C.3      76        0    0.0000
   1161 C         159.1102  138.4761  223.9549 C.3      76        0    0.0000
   1162 C         159.1421  138.3694  225.4853 C.3      76        0    0.0000
   1163 C         160.4249  138.0695  223.2715 C.3      76        0    0.0000
   1164 C         160.0102  137.5834  221.8770 C.3      76        0    0.0000
   1165 C         159.7580  138.7149  220.8638 C.3      76        0    0.0000
   1166 H         158.9932  135.8006  222.5414 H        76        0    0.0000
   1167 H         158.0725  136.6834  221.3229 H        76        0    0.0000
   1168 H         157.6079  136.8593  224.0453 H        76        0    0.0000
   1169 H         157.2215  138.1727  222.9347 H        76        0    0.0000
   1170 H         158.8747  139.5122  223.6733 H        76        0    0.0000
   1171 H         159.9755  138.9546  225.8907 H        76        0    0.0000
   1172 H         159.3192  137.3257  225.7718 H        76        0    0.0000
   1173 H         161.1446  138.8934  223.2430 H        76        0    0.0000
   1174 H         160.8962  137.2403  223.8152 H        76        0    0.0000
   1175 H         160.7681  136.8996  221.4740 H        76        0    0.0000
   1176 H         159.5249  139.6575  221.3706 H        76        0    0.0000
   1177 H         158.8830  138.4633  220.2523 H        76        0    0.0000
   1178 C         161.0053  137.0185  216.7247 C.3      77        0    0.0000
   1179 C         160.2232  137.3626  217.9947 C.3      77        0    0.0000
   1180 C         161.2663  137.6653  219.0854 C.3      77        0    0.0000
   1181 C         160.9673  138.9240  219.9090 C.3      77        0    0.0000
   1182 C         162.5937  137.7658  218.3271 C.3      77        0    0.0000
   1183 C         162.4518  136.7737  217.1678 C.3      77        0    0.0000
   1184 C         162.7137  135.3196  217.6035 C.3      77        0    0.0000
   1185 H         160.5594  136.1760  216.1875 H        77        0    0.0000
   1186 H         160.9776  137.8822  216.0480 H        77        0    0.0000
   1187 H         159.5503  138.2058  217.8036 H        77        0    0.0000
   1188 H         159.6003  136.5141  218.3008 H        77        0    0.0000
   1189 H         161.3228  136.7980  219.7588 H        77        0    0.0000
   1190 H         161.8465  139.1807  220.5120 H        77        0    0.0000
   1191 H         160.7752  139.7772  219.2483 H        77        0    0.0000
   1192 H         163.4516  137.5472  218.9713 H        77        0    0.0000
   1193 H         162.7293  138.7790  217.9271 H        77        0    0.0000
   1194 H         163.1479  137.0452  216.3640 H        77        0    0.0000
   1195 H         161.9950  134.6328  217.1428 H        77        0    0.0000
   1196 H         162.5835  135.2359  218.6891 H        77        0    0.0000
   1197 C         167.5555  136.4757  217.7212 C.3      78        0    0.0000
   1198 C         166.5046  135.4727  218.1720 C.3      78        0    0.0000
   1199 C         165.2314  135.9413  217.4562 C.3      78        0    0.0000
   1200 C         164.1596  134.8630  217.2527 C.3      78        0    0.0000
   1201 C         165.7111  136.6485  216.1719 C.3      78        0    0.0000
   1202 C         167.2496  136.6465  216.2318 C.3      78        0    0.0000
   1203 C         167.9147  137.8942  215.6454 C.3      78        0    0.0000
   1204 H         167.4333  137.4224  218.2615 H        78        0    0.0000
   1205 H         168.5721  136.1103  217.8957 H        78        0    0.0000
   1206 H         166.8044  134.4651  217.8643 H        78        0    0.0000
   1207 H         166.3840  135.4684  219.2598 H        78        0    0.0000
   1208 H         164.7741  136.7167  218.0890 H        78        0    0.0000
   1209 H         164.1796  134.5344  216.2067 H        78        0    0.0000
   1210 H         164.4124  133.9871  217.8619 H        78        0    0.0000
   1211 H         165.3158  137.6718  216.1592 H        78        0    0.0000
   1212 H         165.3592  136.1615  215.2564 H        78        0    0.0000
   1213 H         167.6124  135.7540  215.7013 H        78        0    0.0000
   1214 H         167.8504  138.7265  216.3562 H        78        0    0.0000
   1215 H         168.9817  137.6961  215.4886 H        78        0    0.0000
   1216 C         168.1303  135.6305  211.7509 C.3      79        0    0.0000
   1217 C         168.4090  136.3407  213.0682 C.3      79        0    0.0000
   1218 C         167.1526  137.1945  213.2685 C.3      79        0    0.0000
   1219 C         167.2833  138.3264  214.2922 C.3      79        0    0.0000
   1220 C         166.7251  137.6259  211.8519 C.3      79        0    0.0000
   1221 C         167.5348  136.7432  210.8820 C.3      79        0    0.0000
   1222 C         166.7825  136.2714  209.6340 C.3      79        0    0.0000
   1223 H         169.0406  135.2094  211.3129 H        79        0    0.0000
   1224 H         167.4213  134.8115  211.9148 H        79        0    0.0000
   1225 H         168.5609  135.6336  213.8896 H        79        0    0.0000
   1226 H         169.3127  136.9528  212.9746 H        79        0    0.0000
   1227 H         166.3667  136.5222  213.6447 H        79        0    0.0000
   1228 H         167.8910  139.1308  213.8610 H        79        0    0.0000
   1229 H         166.2910  138.7506  214.4862 H        79        0    0.0000
   1230 H         166.9339  138.6815  211.6472 H        79        0    0.0000
   1231 H         165.6429  137.4980  211.7414 H        79        0    0.0000
   1232 H         168.3772  137.3554  210.5262 H        79        0    0.0000
   1233 H         167.4208  135.5800  209.0712 H        79        0    0.0000
   1234 H         165.8974  135.7026  209.9427 H        79        0    0.0000
   1235 C         166.3319  137.4220  208.6847 C.3      80        0    0.0000
   1236 C         164.8915  137.8980  208.9212 C.3      80        0    0.0000
   1237 H         166.3978  137.0322  207.6609 H        80        0    0.0000
   1238 H         167.0427  138.2542  208.7496 H        80        0    0.0000
   1239 H         164.2973  137.6382  208.0358 H        80        0    0.0000
   1240 H         164.4334  137.3767  209.7700 H        80        0    0.0000
   1241 C         165.4279  142.2829  206.7222 C.3      81        0    0.0000
   1242 C         164.6359  141.0390  207.1334 C.3      81        0    0.0000
   1243 C         165.5480  140.2386  208.0724 C.3      81        0    0.0000
   1244 C         164.7568  139.4478  209.1180 C.3      81        0    0.0000
   1245 C         166.4779  141.3101  208.6514 C.3      81        0    0.0000
   1246 C         166.7856  142.1823  207.4297 C.3      81        0    0.0000
   1247 C         167.3736  143.5572  207.7592 C.3      81        0    0.0000
   1248 H         165.5543  142.3356  205.6354 H        81        0    0.0000
   1249 H         164.8808  143.1821  207.0296 H        81        0    0.0000
   1250 H         164.3482  140.4414  206.2617 H        81        0    0.0000
   1251 H         163.7111  141.3450  207.6369 H        81        0    0.0000
   1252 H         166.1468  139.5475  207.4614 H        81        0    0.0000
   1253 H         163.6960  139.7172  209.0490 H        81        0    0.0000
   1254 H         165.0863  139.7174  210.1282 H        81        0    0.0000
   1255 H         167.3852  140.8747  209.0821 H        81        0    0.0000
   1256 H         165.9700  141.8913  209.4312 H        81        0    0.0000
   1257 H         167.4751  141.6335  206.7717 H        81        0    0.0000
   1258 H         167.8713  143.5339  208.7357 H        81        0    0.0000
   1259 H         166.5609  144.2894  207.8361 H        81        0    0.0000
   1260 C         168.3773  144.0450  206.6787 C.3      82        0    0.0000
   1261 C         167.7432  144.9195  205.5875 C.3      82        0    0.0000
   1262 H         169.1352  144.6452  207.1983 H        82        0    0.0000
   1263 H         168.9014  143.1848  206.2460 H        82        0    0.0000
   1264 H         166.7063  145.1760  205.8344 H        82        0    0.0000
   1265 H         168.2984  145.8652  205.5437 H        82        0    0.0000
   1266 C         170.4936  141.7449  203.9131 C.3      83        0    0.0000
   1267 C         169.8487  142.8412  204.7646 C.3      83        0    0.0000
   1268 C         169.2273  143.8518  203.7840 C.3      83        0    0.0000
   1269 C         167.8049  144.2916  204.1520 C.3      83        0    0.0000
   1270 C         169.2873  143.1502  202.4234 C.3      83        0    0.0000
   1271 C         170.5589  142.2971  202.4850 C.3      83        0    0.0000
   1272 C         171.8322  143.1200  202.2117 C.3      83        0    0.0000
   1273 H         171.4648  141.4373  204.3125 H        83        0    0.0000
   1274 H         169.8452  140.8595  203.9271 H        83        0    0.0000
   1275 H         169.1123  142.4018  205.4465 H        83        0    0.0000
   1276 H         170.6053  143.3392  205.3823 H        83        0    0.0000
   1277 H         169.8790  144.7362  203.7409 H        83        0    0.0000
   1278 H         167.4578  145.0400  203.4297 H        83        0    0.0000
   1279 H         167.1133  143.4437  204.0880 H        83        0    0.0000
   1280 H         169.2942  143.8643  201.5936 H        83        0    0.0000
   1281 H         168.4148  142.4972  202.2914 H        83        0    0.0000
   1282 H         170.4891  141.4794  201.7565 H        83        0    0.0000
   1283 H         172.6685  142.4721  201.9265 H        83        0    0.0000
   1284 H         172.1318  143.6421  203.1281 H        83        0    0.0000
   1285 C         168.0702  143.0630  201.2585 C.3      84        0    0.0000
   1286 C         169.4723  142.7850  200.7111 C.3      84        0    0.0000
   1287 C         170.1669  144.1508  200.5658 C.3      84        0    0.0000
   1288 C         171.6040  144.1851  201.1002 C.3      84        0    0.0000
   1289 C         169.2464  145.1279  201.3041 C.3      84        0    0.0000
   1290 C         167.8364  144.5680  201.0877 C.3      84        0    0.0000
   1291 C         167.2625  144.9387  199.7070 C.3      84        0    0.0000
   1292 H         167.3125  142.4406  200.7731 H        84        0    0.0000
   1293 H         168.0529  142.8154  202.3277 H        84        0    0.0000
   1294 H         170.0082  142.1041  201.3816 H        84        0    0.0000
   1295 H         169.4094  142.2936  199.7332 H        84        0    0.0000
   1296 H         170.1709  144.4242  199.5009 H        84        0    0.0000
   1297 H         172.3019  143.9854  200.2784 H        84        0    0.0000
   1298 H         171.8452  145.1820  201.4867 H        84        0    0.0000
   1299 H         169.3577  146.1533  200.9368 H        84        0    0.0000
   1300 H         169.4771  145.1333  202.3773 H        84        0    0.0000
   1301 H         167.1676  144.9416  201.8734 H        84        0    0.0000
   1302 H         166.7342  144.0907  199.2574 H        84        0    0.0000
   1303 H         168.0844  145.1977  199.0289 H        84        0    0.0000
   1304 C         166.7693  146.2947  196.1521 C.3      85        0    0.0000
   1305 C         166.0902  145.5724  197.3147 C.3      85        0    0.0000
   1306 C         165.8392  146.6292  198.4043 C.3      85        0    0.0000
   1307 C         166.3006  146.1592  199.7901 C.3      85        0    0.0000
   1308 C         166.5581  147.8898  197.8994 C.3      85        0    0.0000
   1309 C         166.5063  147.7870  196.3698 C.3      85        0    0.0000
   1310 C         165.1655  148.2259  195.7532 C.3      85        0    0.0000
   1311 H         167.8497  146.1075  196.2005 H        85        0    0.0000
   1312 H         166.4212  145.9293  195.1809 H        85        0    0.0000
   1313 H         166.7120  144.7403  197.6629 H        85        0    0.0000
   1314 H         165.1342  145.1457  196.9892 H        85        0    0.0000
   1315 H         164.7591  146.8307  198.4359 H        85        0    0.0000
   1316 H         165.4355  145.9054  200.4137 H        85        0    0.0000
   1317 H         166.8248  146.9797  200.2947 H        85        0    0.0000
   1318 H         166.0993  148.8058  198.2843 H        85        0    0.0000
   1319 H         167.6068  147.8860  198.2240 H        85        0    0.0000
   1320 H         167.3189  148.3744  195.9235 H        85        0    0.0000
   1321 H         164.7586  149.1020  196.2695 H        85        0    0.0000
   1322 H         164.4310  147.4207  195.8761 H        85        0    0.0000
   1323 C         166.7262  146.3375  191.6060 C.3      86        0    0.0000
   1324 C         166.0559  146.4094  192.9802 C.3      86        0    0.0000
   1325 C         166.4566  147.7625  193.5950 C.3      86        0    0.0000
   1326 C         165.2937  148.5315  194.2340 C.3      86        0    0.0000
   1327 C         167.0993  148.5328  192.4371 C.3      86        0    0.0000
   1328 C         167.7758  147.4540  191.5845 C.3      86        0    0.0000
   1329 C         169.1362  147.0174  192.1604 C.3      86        0    0.0000
   1330 H         167.1353  145.3430  191.4039 H        86        0    0.0000
   1331 H         165.9720  146.5379  190.8342 H        86        0    0.0000
   1332 H         164.9715  146.2943  192.8748 H        86        0    0.0000
   1333 H         166.4079  145.5914  193.6196 H        86        0    0.0000
   1334 H         167.2301  147.5805  194.3548 H        86        0    0.0000
   1335 H         165.4578  149.6084  194.1082 H        86        0    0.0000
   1336 H         164.3519  148.2924  193.7267 H        86        0    0.0000
   1337 H         167.7996  149.2962  192.7912 H        86        0    0.0000
   1338 H         166.3291  149.0401  191.8417 H        86        0    0.0000
   1339 H         167.9149  147.8269  190.5618 H        86        0    0.0000
   1340 H         169.2654  145.9316  192.0905 H        86        0    0.0000
   1341 H         169.1803  147.2755  193.2252 H        86        0    0.0000
   1342 C         170.3215  147.7243  191.4413 C.3      87        0    0.0000
   1343 C         170.7589  149.0385  192.1040 C.3      87        0    0.0000
   1344 H         171.1703  147.0290  191.4712 H        87        0    0.0000
   1345 H         170.0758  147.8735  190.3834 H        87        0    0.0000
   1346 H         170.5577  149.0280  193.1817 H        87        0    0.0000
   1347 H         171.8463  149.1325  191.9888 H        87        0    0.0000
   1348 C         170.1231  150.3190  191.4603 C.3      88        0    0.0000
   1349 C         168.8296  150.7845  192.1441 C.3      88        0    0.0000
   1350 H         170.8653  151.1222  191.5532 H        88        0    0.0000
   1351 H         169.9705  150.1561  190.3869 H        88        0    0.0000
   1352 H         168.7263  150.3452  193.1432 H        88        0    0.0000
   1353 H         168.8904  151.8713  192.2839 H        88        0    0.0000
   1354 C         166.4804  151.7617  187.8783 C.3      89        0    0.0000
   1355 C         166.2965  151.7318  189.3892 C.3      89        0    0.0000
   1356 C         167.5784  151.0482  189.8760 C.3      89        0    0.0000
   1357 C         167.5320  150.5076  191.3084 C.3      89        0    0.0000
   1358 C         167.9259  150.0147  188.7867 C.3      89        0    0.0000
   1359 C         167.0419  150.3687  187.5749 C.3      89        0    0.0000
   1360 C         167.7071  150.2123  186.2040 C.3      89        0    0.0000
   1361 H         165.5373  151.9478  187.3553 H        89        0    0.0000
   1362 H         167.1828  152.5573  187.6067 H        89        0    0.0000
   1363 H         166.1823  152.7369  189.8070 H        89        0    0.0000
   1364 H         165.4002  151.1546  189.6415 H        89        0    0.0000
   1365 H         168.3734  151.8089  189.8548 H        89        0    0.0000
   1366 H         166.6756  150.9505  191.8306 H        89        0    0.0000
   1367 H         167.3570  149.4256  191.2777 H        89        0    0.0000
   1368 H         167.7245  148.9840  189.0980 H        89        0    0.0000
   1369 H         168.9967  150.0657  188.5620 H        89        0    0.0000
   1370 H         166.1906  149.6714  187.5904 H        89        0    0.0000
   1371 H         167.2583  150.9276  185.5046 H        89        0    0.0000
   1372 H         168.7678  150.4771  186.2881 H        89        0    0.0000
   1373 C         167.5951  148.7814  185.5974 C.3      90        0    0.0000
   1374 C         167.4377  148.7619  184.0702 C.3      90        0    0.0000
   1375 H         168.5250  148.2563  185.8505 H        90        0    0.0000
   1376 H         166.7823  148.2342  186.0892 H        90        0    0.0000
   1377 H         167.6611  149.7423  183.6336 H        90        0    0.0000
   1378 H         168.1760  148.0605  183.6608 H        90        0    0.0000
   1379 C         164.2487  151.1640  181.8996 C.3      91        0    0.0000
   1380 C         165.5258  150.5538  182.4566 C.3      91        0    0.0000
   1381 C         165.0197  149.4013  183.3333 C.3      91        0    0.0000
   1382 C         166.0301  148.2740  183.5810 C.3      91        0    0.0000
   1383 C         163.6778  148.9627  182.7118 C.3      91        0    0.0000
   1384 C         163.4062  149.9357  181.5499 C.3      91        0    0.0000
   1385 C         161.9312  150.2879  181.3413 C.3      91        0    0.0000
   1386 H         163.7562  151.7774  182.6640 H        91        0    0.0000
   1387 H         164.4429  151.7949  181.0268 H        91        0    0.0000
   1388 H         166.1530  150.2003  181.6311 H        91        0    0.0000
   1389 H         166.1083  151.2800  183.0322 H        91        0    0.0000
   1390 H         164.7839  149.8278  184.3198 H        91        0    0.0000
   1391 H         165.6184  147.5851  184.3282 H        91        0    0.0000
   1392 H         166.1562  147.6967  182.6574 H        91        0    0.0000
   1393 H         162.8927  149.0275  183.4755 H        91        0    0.0000
   1394 H         163.6877  147.9275  182.3548 H        91        0    0.0000
   1395 H         163.8108  149.4915  180.6288 H        91        0    0.0000
   1396 H         161.3656  150.1095  182.2635 H        91        0    0.0000
   1397 H         161.8421  151.3581  181.1198 H        91        0    0.0000
   1398 C         161.2842  149.4824  180.1798 C.3      92        0    0.0000
   1399 C         159.7778  149.7281  180.0136 C.3      92        0    0.0000
   1400 H         161.4324  148.4196  180.4103 H        92        0    0.0000
   1401 H         161.8258  149.6792  179.2471 H        92        0    0.0000
   1402 H         159.2930  149.5370  180.9795 H        92        0    0.0000
   1403 H         159.5698  150.7743  179.7601 H        92        0    0.0000
   1404 C         159.0899  148.7842  178.9673 C.3      93        0    0.0000
   1405 C         157.6138  149.1150  178.7045 C.3      93        0    0.0000
   1406 H         159.1434  147.7667  179.3753 H        93        0    0.0000
   1407 H         159.6695  148.7796  178.0368 H        93        0    0.0000
   1408 H         157.0873  148.1759  178.4911 H        93        0    0.0000
   1409 H         157.1374  149.5465  179.5926 H        93        0    0.0000
   1410 C         154.1540  148.9706  176.0989 C.3      94        0    0.0000
   1411 C         155.0465  149.0315  177.3376 C.3      94        0    0.0000
   1412 C         155.8912  150.3110  177.2100 C.3      94        0    0.0000
   1413 C         157.3813  150.0547  177.4709 C.3      94        0    0.0000
   1414 C         155.5847  150.8431  175.8015 C.3      94        0    0.0000
   1415 C         154.1505  150.3836  175.5101 C.3      94        0    0.0000
   1416 C         153.0632  151.2658  176.1504 C.3      94        0    0.0000
   1417 H         154.6005  148.2782  175.3737 H        94        0    0.0000
   1418 H         153.1529  148.5941  176.3311 H        94        0    0.0000
   1419 H         155.6557  148.1243  177.4145 H        94        0    0.0000
   1420 H         154.4328  149.0851  178.2445 H        94        0    0.0000
   1421 H         155.5183  151.0360  177.9473 H        94        0    0.0000
   1422 H         157.9098  151.0027  177.6244 H        94        0    0.0000
   1423 H         157.8277  149.5830  176.5872 H        94        0    0.0000
   1424 H         155.7098  151.9284  175.7366 H        94        0    0.0000
   1425 H         156.2631  150.3896  175.0671 H        94        0    0.0000
   1426 H         153.9827  150.3322  174.4267 H        94        0    0.0000
   1427 H         153.0813  151.1888  177.2428 H        94        0    0.0000
   1428 H         152.0761  150.9130  175.8279 H        94        0    0.0000
   1429 C         152.7122  153.2511  172.5239 C.3      95        0    0.0000
   1430 C         153.5517  152.2161  173.2778 C.3      95        0    0.0000
   1431 C         154.1209  152.9288  174.5096 C.3      95        0    0.0000
   1432 C         153.2005  152.7573  175.7327 C.3      95        0    0.0000
   1433 C         154.2535  154.3737  174.0119 C.3      95        0    0.0000
   1434 C         152.9842  154.6103  173.1896 C.3      95        0    0.0000
   1435 C         153.1342  155.7789  172.2090 C.3      95        0    0.0000
   1436 H         152.9823  153.2437  171.4618 H        95        0    0.0000
   1437 H         151.6463  153.0043  172.5893 H        95        0    0.0000
   1438 H         154.3782  151.8932  172.6322 H        95        0    0.0000
   1439 H         152.9714  151.3217  173.5263 H        95        0    0.0000
   1440 H         155.1116  152.5220  174.7497 H        95        0    0.0000
   1441 H         152.2018  153.1393  175.4886 H        95        0    0.0000
   1442 H         153.5593  153.3438  176.5852 H        95        0    0.0000
   1443 H         155.1420  154.4576  173.3726 H        95        0    0.0000
   1444 H         154.3595  155.1063  174.8176 H        95        0    0.0000
   1445 H         152.1585  154.8282  173.8814 H        95        0    0.0000
   1446 H         152.1664  156.0227  171.7554 H        95        0    0.0000
   1447 H         153.8034  155.4849  171.3918 H        95        0    0.0000
   1448 C         151.2275  159.8910  172.6830 C.3      96        0    0.0000
   1449 C         151.5351  158.4048  172.5823 C.3      96        0    0.0000
   1450 C         153.0641  158.3622  172.4670 C.3      96        0    0.0000
   1451 C         153.7174  157.0441  172.9015 C.3      96        0    0.0000
   1452 C         153.5725  159.6241  173.1940 C.3      96        0    0.0000
   1453 C         152.3172  160.4033  173.6270 C.3      96        0    0.0000
   1454 C         152.4586  161.9265  173.5726 C.3      96        0    0.0000
   1455 H         151.3052  160.3626  171.6958 H        96        0    0.0000
   1456 H         150.2218  160.0757  173.0728 H        96        0    0.0000
   1457 H         151.1742  157.8945  173.4818 H        96        0    0.0000
   1458 H         151.0470  157.9442  171.7176 H        96        0    0.0000
   1459 H         153.3097  158.4931  171.4026 H        96        0    0.0000
   1460 H         154.7927  157.0941  172.6926 H        96        0    0.0000
   1461 H         153.6134  156.9336  173.9874 H        96        0    0.0000
   1462 H         154.1855  160.2130  172.5003 H        96        0    0.0000
   1463 H         154.2038  159.3963  174.0594 H        96        0    0.0000
   1464 H         152.0585  160.0955  174.6507 H        96        0    0.0000
   1465 H         153.1826  162.2661  174.3227 H        96        0    0.0000
   1466 H         152.8589  162.2184  172.5943 H        96        0    0.0000
   1467 C         151.4410  165.3851  171.1876 C.3      97        0    0.0000
   1468 C         152.0823  164.3194  172.0630 C.3      97        0    0.0000
   1469 C         151.0111  164.0340  173.1232 C.3      97        0    0.0000
   1470 C         151.1063  162.6594  173.7973 C.3      97        0    0.0000
   1471 C         149.6607  164.3473  172.4466 C.3      97        0    0.0000
   1472 C         149.9997  164.8911  171.0467 C.3      97        0    0.0000
   1473 C         149.0602  165.9889  170.5415 C.3      97        0    0.0000
   1474 H         151.4780  166.3604  171.6880 H        97        0    0.0000
   1475 H         151.9434  165.4772  170.2198 H        97        0    0.0000
   1476 H         152.3095  163.4357  171.4569 H        97        0    0.0000
   1477 H         153.0183  164.6676  172.5110 H        97        0    0.0000
   1478 H         151.1425  164.7799  173.9213 H        97        0    0.0000
   1479 H         150.9478  162.7802  174.8756 H        97        0    0.0000
   1480 H         150.2927  162.0230  173.4297 H        97        0    0.0000
   1481 H         149.1271  165.0964  173.0448 H        97        0    0.0000
   1482 H         149.0041  163.4740  172.3735 H        97        0    0.0000
   1483 H         149.9922  164.0483  170.3401 H        97        0    0.0000
   1484 H         148.0455  165.5917  170.4196 H        97        0    0.0000
   1485 H         148.9979  166.7860  171.2918 H        97        0    0.0000
   1486 C         152.2475  164.4140  167.7589 C.3      98        0    0.0000
   1487 C         150.9527  164.6068  168.5334 C.3      98        0    0.0000
   1488 C         150.9233  166.1163  168.7815 C.3      98        0    0.0000
   1489 C         149.5336  166.6062  169.1957 C.3      98        0    0.0000
   1490 C         151.4507  166.7141  167.4643 C.3      98        0    0.0000
   1491 C         152.2571  165.5927  166.7773 C.3      98        0    0.0000
   1492 C         153.6412  166.0011  166.2574 C.3      98        0    0.0000
   1493 H         152.2740  163.4502  167.2407 H        98        0    0.0000
   1494 H         153.0961  164.4456  168.4508 H        98        0    0.0000
   1495 H         150.0962  164.2887  167.9265 H        98        0    0.0000
   1496 H         150.9438  164.0339  169.4657 H        98        0    0.0000
   1497 H         151.6461  166.3485  169.5773 H        98        0    0.0000
   1498 H         149.5268  167.6996  169.2776 H        98        0    0.0000
   1499 H         148.8097  166.3449  168.4146 H        98        0    0.0000
   1500 H         150.6257  167.0146  166.8065 H        98        0    0.0000
   1501 H         152.0449  167.6133  167.6584 H        98        0    0.0000
   1502 H         151.6750  165.2822  165.8968 H        98        0    0.0000
   1503 H         154.0790  165.1605  165.7059 H        98        0    0.0000
   1504 H         154.3002  166.1927  167.1127 H        98        0    0.0000
   1505 C         150.4355  169.2481  164.9741 C.3      99        0    0.0000
   1506 C         151.4157  168.4875  165.8541 C.3      99        0    0.0000
   1507 C         152.2475  167.6803  164.8494 C.3      99        0    0.0000
   1508 C         153.6381  167.2576  165.3401 C.3      99        0    0.0000
   1509 C         152.2272  168.4960  163.5403 C.3      99        0    0.0000
   1510 C         151.3085  169.7033  163.8029 C.3      99        0    0.0000
   1511 C         150.4736  170.1462  162.5988 C.3      99        0    0.0000
   1512 H         149.6337  168.5813  164.6345 H        99        0    0.0000
   1513 H         149.9796  170.0910  165.5025 H        99        0    0.0000
   1514 H         152.0273  169.1984  166.4201 H        99        0    0.0000
   1515 H         150.9025  167.8410  166.5729 H        99        0    0.0000
   1516 H         151.6945  166.7506  164.6482 H        99        0    0.0000
   1517 H         154.2768  167.0592  164.4711 H        99        0    0.0000
   1518 H         154.0961  168.0934  165.8821 H        99        0    0.0000
   1519 H         151.8334  167.8658  162.7332 H        99        0    0.0000
   1520 H         153.2221  168.8285  163.2259 H        99        0    0.0000
   1521 H         151.9329  170.5417  164.1443 H        99        0    0.0000
   1522 H         149.4218  169.8744  162.7473 H        99        0    0.0000
   1523 H         150.5075  171.2391  162.5167 H        99        0    0.0000
   1524 C         147.9067  169.8145  159.2746 C.3     100        0    0.0000
   1525 C         148.7644  170.4376  160.3749 C.3     100        0    0.0000
   1526 C         150.2258  170.0853  160.0476 C.3     100        0    0.0000
   1527 C         150.9782  169.5297  161.2640 C.3     100        0    0.0000
   1528 C         150.1371  169.1072  158.8660 C.3     100        0    0.0000
   1529 C         148.8604  169.5091  158.1167 C.3     100        0    0.0000
   1530 C         149.0320  170.7219  157.1839 C.3     100        0    0.0000
   1531 H         147.4789  168.8750  159.6474 H       100        0    0.0000
   1532 H         147.0700  170.4600  158.9896 H       100        0    0.0000
   1533 H         148.4478  170.0733  161.3584 H       100        0    0.0000
   1534 H         148.6412  171.5270  160.3801 H       100        0    0.0000
   1535 H         150.7254  171.0029  159.7062 H       100        0    0.0000
   1536 H         152.0549  169.7069  161.1594 H       100        0    0.0000
   1537 H         150.8394  168.4428  161.3101 H       100        0    0.0000
   1538 H         151.0326  169.1403  158.2378 H       100        0    0.0000
   1539 H         150.0298  168.0774  159.2312 H       100        0    0.0000
   1540 H         148.4783  168.6589  157.5375 H       100        0    0.0000
   1541 H         148.9634  170.4267  156.1314 H       100        0    0.0000
   1542 H         150.0331  171.1471  157.3252 H       100        0    0.0000
   1543 C         149.4699  173.5729  154.6030 C.3     101        0    0.0000
   1544 C         148.2022  172.9602  155.1964 C.3     101        0    0.0000
   1545 C         148.2999  173.1356  156.7217 C.3     101        0    0.0000
   1546 C         147.9900  171.8377  157.4791 C.3     101        0    0.0000
   1547 C         149.7170  173.6781  156.9630 C.3     101        0    0.0000
   1548 C         150.0565  174.4714  155.6948 C.3     101        0    0.0000
   1549 C         149.4515  175.8866  155.6552 C.3     101        0    0.0000
   1550 H         150.1809  172.7678  154.3772 H       101        0    0.0000
   1551 H         149.2716  174.1014  153.6653 H       101        0    0.0000
   1552 H         148.1064  171.9119  154.8929 H       101        0    0.0000
   1553 H         147.3161  173.4861  154.8219 H       101        0    0.0000
   1554 H         147.5744  173.9058  157.0196 H       101        0    0.0000
   1555 H         146.9849  171.4801  157.2267 H       101        0    0.0000
   1556 H         147.9931  172.0381  158.5573 H       101        0    0.0000
   1557 H         149.7763  174.2800  157.8751 H       101        0    0.0000
   1558 H         150.4291  172.8494  157.0694 H       101        0    0.0000
   1559 H         151.1450  174.5400  155.5717 H       101        0    0.0000
   1560 H         148.5789  175.9643  156.3125 H       101        0    0.0000
   1561 H         149.0980  176.0995  154.6390 H       101        0    0.0000
   1562 C         152.0652  177.6315  152.6749 C.3     102        0    0.0000
   1563 C         150.9952  176.9991  153.5517 C.3     102        0    0.0000
   1564 C         151.5590  177.1774  154.9629 C.3     102        0    0.0000
   1565 C         150.4908  176.9770  156.0408 C.3     102        0    0.0000
   1566 C         152.1863  178.5831  154.9315 C.3     102        0    0.0000
   1567 C         152.4581  178.8981  153.4460 C.3     102        0    0.0000
   1568 C         153.8560  179.4474  153.1347 C.3     102        0    0.0000
   1569 H         151.6886  177.8629  151.6736 H       102        0    0.0000
   1570 H         152.9054  176.9376  152.5647 H       102        0    0.0000
   1571 H         150.0442  177.5330  153.4350 H       102        0    0.0000
   1572 H         150.8303  175.9466  153.3019 H       102        0    0.0000
   1573 H         152.3664  176.4446  155.1062 H       102        0    0.0000
   1574 H         150.9611  176.7068  156.9937 H       102        0    0.0000
   1575 H         149.9626  177.9233  156.2077 H       102        0    0.0000
   1576 H         151.4964  179.3346  155.3352 H       102        0    0.0000
   1577 H         153.0894  178.6174  155.5500 H       102        0    0.0000
   1578 H         151.7450  179.6844  153.1567 H       102        0    0.0000
   1579 H         154.3878  179.6281  154.0764 H       102        0    0.0000
   1580 H         153.7537  180.4207  152.6402 H       102        0    0.0000
   1581 C         154.3244  178.1345  148.4886 C.3     103        0    0.0000
   1582 C         154.9869  177.7075  149.7895 C.3     103        0    0.0000
   1583 C         154.6880  178.8714  150.7429 C.3     103        0    0.0000
   1584 C         154.7248  178.5213  152.2359 C.3     103        0    0.0000
   1585 C         153.3684  179.4932  150.2413 C.3     103        0    0.0000
   1586 C         152.9944  178.7264  148.9595 C.3     103        0    0.0000
   1587 C         152.3257  179.5771  147.8768 C.3     103        0    0.0000
   1588 H         154.9364  178.8900  147.9810 H       103        0    0.0000
   1589 H         154.1834  177.2918  147.8049 H       103        0    0.0000
   1590 H         154.5440  176.7668  150.1343 H       103        0    0.0000
   1591 H         156.0623  177.5457  149.6664 H       103        0    0.0000
   1592 H         155.4715  179.6270  150.5828 H       103        0    0.0000
   1593 H         154.3860  177.4867  152.3672 H       103        0    0.0000
   1594 H         155.7628  178.5586  152.5871 H       103        0    0.0000
   1595 H         153.5321  180.5579  150.0333 H       103        0    0.0000
   1596 H         152.5591  179.4348  150.9767 H       103        0    0.0000
   1597 H         152.3279  177.8972  149.2380 H       103        0    0.0000
   1598 H         151.9030  178.9327  147.0968 H       103        0    0.0000
   1599 H         151.4872  180.1299  148.3168 H       103        0    0.0000
   1600 C         151.5936  183.1903  145.2033 C.3     104        0    0.0000
   1601 C         151.4386  181.9131  146.0325 C.3     104        0    0.0000
   1602 C         152.7624  181.1391  145.9002 C.3     104        0    0.0000
   1603 C         153.3063  180.5927  147.2261 C.3     104        0    0.0000
   1604 C         153.7228  182.1347  145.2417 C.3     104        0    0.0000
   1605 C         152.8325  182.9813  144.3257 C.3     104        0    0.0000
   1606 C         152.5185  182.2736  142.9939 C.3     104        0    0.0000
   1607 H         150.6858  183.4216  144.6380 H       104        0    0.0000
   1608 H         151.7725  184.0332  145.8832 H       104        0    0.0000
   1609 H         151.1959  182.1671  147.0703 H       104        0    0.0000
   1610 H         150.6120  181.3054  145.6461 H       104        0    0.0000
   1611 H         152.6054  180.3040  145.2026 H       104        0    0.0000
   1612 H         154.2622  180.0868  147.0455 H       104        0    0.0000
   1613 H         153.5080  181.4132  147.9243 H       104        0    0.0000
   1614 H         154.5302  181.6297  144.7015 H       104        0    0.0000
   1615 H         154.1844  182.7794  146.0008 H       104        0    0.0000
   1616 H         153.3221  183.9420  144.1222 H       104        0    0.0000
   1617 H         151.7078  181.5464  143.1136 H       104        0    0.0000
   1618 H         153.4014  181.7146  142.6619 H       104        0    0.0000
   1619 C         149.7268  186.0368  141.5649 C.3     105        0    0.0000
   1620 C         149.9824  184.6329  142.1110 C.3     105        0    0.0000
   1621 C         151.4830  184.5546  142.4412 C.3     105        0    0.0000
   1622 C         152.1392  183.2880  141.8763 C.3     105        0    0.0000
   1623 C         152.0728  185.8632  141.8930 C.3     105        0    0.0000
   1624 C         150.9301  186.8819  141.9907 C.3     105        0    0.0000
   1625 C         150.7379  187.4814  143.3957 C.3     105        0    0.0000
   1626 H         149.6881  185.9897  140.4691 H       105        0    0.0000
   1627 H         148.7688  186.4426  141.9049 H       105        0    0.0000
   1628 H         149.6657  183.8768  141.3842 H       105        0    0.0000
   1629 H         149.3962  184.4685  143.0228 H       105        0    0.0000
   1630 H         151.5877  184.5544  143.5354 H       105        0    0.0000
   1631 H         153.0318  183.5481  141.2955 H       105        0    0.0000
   1632 H         151.4436  182.7975  141.1848 H       105        0    0.0000
   1633 H         152.9698  186.1699  142.4399 H       105        0    0.0000
   1634 H         152.3560  185.7413  140.8394 H       105        0    0.0000
   1635 H         151.0851  187.6942  141.2691 H       105        0    0.0000
   1636 H         151.0079  186.7611  144.1754 H       105        0    0.0000
   1637 H         149.6779  187.7206  143.5439 H       105        0    0.0000
   1638 C         150.5068  191.8852  143.8827 C.3     106        0    0.0000
   1639 C         149.9324  190.6830  143.1284 C.3     106        0    0.0000
   1640 C         151.1299  189.8870  142.5983 C.3     106        0    0.0000
   1641 C         151.5573  188.7885  143.5900 C.3     106        0    0.0000
   1642 C         152.1759  190.9876  142.3799 C.3     106        0    0.0000
   1643 C         152.0166  191.9089  143.5920 C.3     106        0    0.0000
   1644 C         152.5931  193.3070  143.3414 C.3     106        0    0.0000
   1645 H         150.0031  192.8021  143.5559 H       106        0    0.0000
   1646 H         150.3304  191.7845  144.9597 H       106        0    0.0000
   1647 H         149.3371  191.0483  142.2820 H       106        0    0.0000
   1648 H         149.2626  190.0877  143.7574 H       106        0    0.0000
   1649 H         150.8709  189.4198  141.6395 H       106        0    0.0000
   1650 H         151.3970  189.1458  144.6144 H       106        0    0.0000
   1651 H         152.6260  188.5664  143.5004 H       106        0    0.0000
   1652 H         151.9430  191.5318  141.4553 H       106        0    0.0000
   1653 H         153.1980  190.6082  142.2880 H       106        0    0.0000
   1654 H         152.5403  191.4541  144.4445 H       106        0    0.0000
   1655 H         153.6473  193.2380  143.0489 H       106        0    0.0000
   1656 H         152.5584  193.8871  144.2711 H       106        0    0.0000
   1657 C         153.7290  194.2088  139.1263 C.3     107        0    0.0000
   1658 C         153.5950  193.5637  140.5049 C.3     107        0    0.0000
   1659 C         152.0929  193.5400  140.8366 C.3     107        0    0.0000
   1660 C         151.7981  194.0727  142.2450 C.3     107        0    0.0000
   1661 C         151.4309  194.3485  139.7102 C.3     107        0    0.0000
   1662 C         152.3380  194.1412  138.4907 C.3     107        0    0.0000
   1663 C         152.1110  192.8078  137.7551 C.3     107        0    0.0000
   1664 H         154.0175  195.2601  139.2531 H       107        0    0.0000
   1665 H         154.5065  193.7309  138.5221 H       107        0    0.0000
   1666 H         154.1863  194.1154  141.2439 H       107        0    0.0000
   1667 H         153.9829  192.5384  140.4828 H       107        0    0.0000
   1668 H         151.7492  192.4981  140.7688 H       107        0    0.0000
   1669 H         150.7245  194.0127  142.4579 H       107        0    0.0000
   1670 H         152.0721  195.1333  142.2956 H       107        0    0.0000
   1671 H         150.3967  194.0367  139.5344 H       107        0    0.0000
   1672 H         151.4132  195.4157  139.9671 H       107        0    0.0000
   1673 H         152.2147  194.9704  137.7823 H       107        0    0.0000
   1674 H         151.8497  192.0071  138.4554 H       107        0    0.0000
   1675 H         153.0434  192.5030  137.2646 H       107        0    0.0000
   1676 C         147.7977  194.9537  136.5837 C.3     108        0    0.0000
   1677 C         148.5123  193.6104  136.6337 C.3     108        0    0.0000
   1678 C         149.9608  194.0051  136.9397 C.3     108        0    0.0000
   1679 C         151.0094  192.9232  136.6638 C.3     108        0    0.0000
   1680 C         150.1796  195.3442  136.2085 C.3     108        0    0.0000
   1681 C         148.7765  195.8324  135.7980 C.3     108        0    0.0000
   1682 C         148.5428  197.3419  135.9130 C.3     108        0    0.0000
   1683 H         146.8236  194.8804  136.0903 H       108        0    0.0000
   1684 H         147.6363  195.3250  137.6018 H       108        0    0.0000
   1685 H         148.0941  192.9532  137.4024 H       108        0    0.0000
   1686 H         148.4184  193.1051  135.6662 H       108        0    0.0000
   1687 H         150.0115  194.2218  138.0174 H       108        0    0.0000
   1688 H         150.5065  191.9536  136.5671 H       108        0    0.0000
   1689 H         151.4892  193.1267  135.6992 H       108        0    0.0000
   1690 H         150.8079  195.2447  135.3168 H       108        0    0.0000
   1691 H         150.6963  196.0443  136.8738 H       108        0    0.0000
   1692 H         148.6516  195.5770  134.7349 H       108        0    0.0000
   1693 H         147.5467  197.5807  135.5218 H       108        0    0.0000
   1694 H         148.5413  197.6247  136.9723 H       108        0    0.0000
   1695 C         149.4537  201.9096  134.8833 C.3     109        0    0.0000
   1696 C         148.9620  200.6684  135.6320 C.3     109        0    0.0000
   1697 C         148.9819  199.5079  134.6211 C.3     109        0    0.0000
   1698 C         149.5965  198.2119  135.1641 C.3     109        0    0.0000
   1699 C         149.7546  200.0613  133.4195 C.3     109        0    0.0000
   1700 C         149.4093  201.5541  133.3932 C.3     109        0    0.0000
   1701 C         148.0387  201.8288  132.7458 C.3     109        0    0.0000
   1702 H         148.8716  202.7990  135.1426 H       109        0    0.0000
   1703 H         150.4929  202.1093  135.1746 H       109        0    0.0000
   1704 H         149.5958  200.4825  136.5061 H       109        0    0.0000
   1705 H         147.9410  200.8242  135.9996 H       109        0    0.0000
   1706 H         147.9486  199.3113  134.3013 H       109        0    0.0000
   1707 H         150.0029  197.6259  134.3311 H       109        0    0.0000
   1708 H         150.4350  198.4368  135.8333 H       109        0    0.0000
   1709 H         149.4900  199.5472  132.4898 H       109        0    0.0000
   1710 H         150.8349  199.9383  133.5705 H       109        0    0.0000
   1711 H         150.1876  202.1022  132.8471 H       109        0    0.0000
   1712 H         147.4846  202.5932  133.3017 H       109        0    0.0000
   1713 H         147.4340  200.9146  132.7722 H       109        0    0.0000
   1714 C         144.8799  203.1024  129.8843 C.3     110        0    0.0000
   1715 C         145.6922  202.8343  131.1504 C.3     110        0    0.0000
   1716 C         147.1255  203.3150  130.8647 C.3     110        0    0.0000
   1717 C         148.1800  202.2731  131.2610 C.3     110        0    0.0000
   1718 C         147.1281  203.6710  129.3701 C.3     110        0    0.0000
   1719 C         145.6904  204.1122  129.0676 C.3     110        0    0.0000
   1720 C         145.3759  205.5621  129.4789 C.3     110        0    0.0000
   1721 H         144.7897  202.1677  129.3161 H       110        0    0.0000
   1722 H         143.8645  203.4420  130.1110 H       110        0    0.0000
   1723 H         145.6437  201.7731  131.4178 H       110        0    0.0000
   1724 H         145.2766  203.3983  131.9937 H       110        0    0.0000
   1725 H         147.2947  204.2336  131.4441 H       110        0    0.0000
   1726 H         149.1883  202.6668  131.0879 H       110        0    0.0000
   1727 H         148.0719  201.3879  130.6228 H       110        0    0.0000
   1728 H         147.8718  204.4377  129.1321 H       110        0    0.0000
   1729 H         147.3657  202.7845  128.7677 H       110        0    0.0000
   1730 H         145.4721  203.9839  127.9997 H       110        0    0.0000
   1731 H         146.0631  205.9127  130.2563 H       110        0    0.0000
   1732 H         144.3680  205.6046  129.9095 H       110        0    0.0000
   1733 C         142.4929  207.2962  126.1194 C.3     111        0    0.0000
   1734 C         142.9819  206.7189  127.4500 C.3     111        0    0.0000
   1735 C         144.3927  206.1588  127.1949 C.3     111        0    0.0000
   1736 C         145.4221  206.5358  128.2674 C.3     111        0    0.0000
   1737 C         144.7710  206.6931  125.8097 C.3     111        0    0.0000
   1738 C         143.4443  206.7574  125.0455 C.3     111        0    0.0000
   1739 C         143.0177  205.3843  124.4925 C.3     111        0    0.0000
   1740 H         141.4404  207.0605  125.9354 H       111        0    0.0000
   1741 H         142.5757  208.3900  126.1572 H       111        0    0.0000
   1742 H         142.9653  207.4945  128.2237 H       111        0    0.0000
   1743 H         142.3168  205.9140  127.7841 H       111        0    0.0000
   1744 H         144.3226  205.0636  127.1307 H       111        0    0.0000
   1745 H         146.4282  206.5028  127.8327 H       111        0    0.0000
   1746 H         145.2581  207.5637  128.6111 H       111        0    0.0000
   1747 H         145.5161  206.0610  125.3158 H       111        0    0.0000
   1748 H         145.1949  207.7023  125.8923 H       111        0    0.0000
   1749 H         143.5305  207.4734  124.2184 H       111        0    0.0000
   1750 H         141.9279  205.2726  124.5079 H       111        0    0.0000
   1751 H         143.4283  204.5919  125.1295 H       111        0    0.0000
   1752 C         145.5852  205.4155  120.4895 C.3     112        0    0.0000
   1753 C         145.8114  204.9571  121.9327 C.3     112        0    0.0000
   1754 C         144.9070  205.8258  122.8139 C.3     112        0    0.0000
   1755 C         143.5379  205.1584  123.0432 C.3     112        0    0.0000
   1756 C         144.8495  207.1374  122.0205 C.3     112        0    0.0000
   1757 C         144.7325  206.6933  120.5603 C.3     112        0    0.0000
   1758 C         145.1552  207.7937  119.5804 C.3     112        0    0.0000
   1759 H         146.5508  205.5833  119.9990 H       112        0    0.0000
   1760 H         145.0606  204.6419  119.9172 H       112        0    0.0000
   1761 H         146.8600  205.1381  122.2008 H       112        0    0.0000
   1762 H         145.6307  203.8842  122.0540 H       112        0    0.0000
   1763 H         145.3874  205.9959  123.7860 H       112        0    0.0000
   1764 H         143.6308  204.0786  122.8756 H       112        0    0.0000
   1765 H         142.7935  205.5226  122.3271 H       112        0    0.0000
   1766 H         145.7818  207.6964  122.1745 H       112        0    0.0000
   1767 H         144.0233  207.7914  122.3150 H       112        0    0.0000
   1768 H         143.6858  206.4222  120.3631 H       112        0    0.0000
   1769 H         145.6831  207.3592  118.7236 H       112        0    0.0000
   1770 H         145.8589  208.4724  120.0767 H       112        0    0.0000
   1771 C         144.1058  211.5232  116.8382 C.3     113        0    0.0000
   1772 C         144.8913  210.5750  117.7429 C.3     113        0    0.0000
   1773 C         144.1758  209.2143  117.6827 C.3     113        0    0.0000
   1774 C         143.9365  208.6190  119.0765 C.3     113        0    0.0000
   1775 C         142.8889  209.4840  116.8878 C.3     113        0    0.0000
   1776 C         143.2467  210.6330  115.9366 C.3     113        0    0.0000
   1777 C         144.0109  210.1924  114.6747 C.3     113        0    0.0000
   1778 H         143.4508  212.1461  117.4607 H       113        0    0.0000
   1779 H         144.7624  212.1999  116.2823 H       113        0    0.0000
   1780 H         144.9528  210.9799  118.7589 H       113        0    0.0000
   1781 H         145.9190  210.4664  117.3767 H       113        0    0.0000
   1782 H         144.8078  208.5265  117.1034 H       113        0    0.0000
   1783 H         143.0399  207.9883  119.0726 H       113        0    0.0000
   1784 H         143.7492  209.4308  119.7896 H       113        0    0.0000
   1785 H         142.5333  208.5898  116.3668 H       113        0    0.0000
   1786 H         142.0868  209.8125  117.5616 H       113        0    0.0000
   1787 H         142.3395  211.1743  115.6392 H       113        0    0.0000
   1788 H         144.5607  209.2610  114.8480 H       113        0    0.0000
   1789 H         144.7579  210.9543  114.4208 H       113        0    0.0000
   1790 C         140.2773  209.0785  115.8098 C.3     114        0    0.0000
   1791 C         141.6946  208.8765  115.2673 C.3     114        0    0.0000
   1792 C         141.6986  209.4564  113.8468 C.3     114        0    0.0000
   1793 C         143.0670  210.0183  113.4514 C.3     114        0    0.0000
   1794 C         140.5711  210.4931  113.8906 C.3     114        0    0.0000
   1795 C         139.4840  209.7720  114.6945 C.3     114        0    0.0000
   1796 C         138.3848  210.6855  115.2437 C.3     114        0    0.0000
   1797 H         139.8149  208.1248  116.0861 H       114        0    0.0000
   1798 H         140.3178  209.6945  116.7161 H       114        0    0.0000
   1799 H         141.9731  207.8172  115.2598 H       114        0    0.0000
   1800 H         142.4109  209.3962  115.9149 H       114        0    0.0000
   1801 H         141.4121  208.6559  113.1491 H       114        0    0.0000
   1802 H         142.9324  210.9958  112.9729 H       114        0    0.0000
   1803 H         143.5459  209.3672  112.7107 H       114        0    0.0000
   1804 H         140.2259  210.7646  112.8880 H       114        0    0.0000
   1805 H         140.8973  211.4070  114.4027 H       114        0    0.0000
   1806 H         139.0353  208.9946  114.0590 H       114        0    0.0000
   1807 H         138.1796  210.4449  116.2934 H       114        0    0.0000
   1808 H         137.4550  210.5059  114.6907 H       114        0    0.0000
   1809 C         135.3604  213.8903  114.8698 C.3     115        0    0.0000
   1810 C         136.2051  212.6246  114.9153 C.3     115        0    0.0000
   1811 C         137.5764  213.1448  115.3588 C.3     115        0    0.0000
   1812 C         138.7503  212.1902  115.1201 C.3     115        0    0.0000
   1813 C         137.7105  214.5375  114.7124 C.3     115        0    0.0000
   1814 C         136.3004  214.9049  114.2104 C.3     115        0    0.0000
   1815 C         135.9023  216.3746  114.3768 C.3     115        0    0.0000
   1816 H         134.4406  213.7474  114.2942 H       115        0    0.0000
   1817 H         135.0826  214.1865  115.8872 H       115        0    0.0000
   1818 H         135.7992  211.8872  115.6146 H       115        0    0.0000
   1819 H         136.2399  212.1670  113.9205 H       115        0    0.0000
   1820 H         137.5202  213.3052  116.4461 H       115        0    0.0000
   1821 H         139.1617  212.3717  114.1201 H       115        0    0.0000
   1822 H         139.5491  212.4185  115.8356 H       115        0    0.0000
   1823 H         138.4132  214.5511  113.8723 H       115        0    0.0000
   1824 H         138.0981  215.2478  115.4507 H       115        0    0.0000
   1825 H         136.2859  214.6977  113.1297 H       115        0    0.0000
   1826 H         134.8145  216.4394  114.4972 H       115        0    0.0000
   1827 H         136.3454  216.7635  115.3013 H       115        0    0.0000
   1828 C         134.1363  216.6720  110.1515 C.3     116        0    0.0000
   1829 C         134.8308  216.1635  111.4072 C.3     116        0    0.0000
   1830 C         135.2629  217.4567  112.1061 C.3     116        0    0.0000
   1831 C         136.3303  217.2920  113.1922 C.3     116        0    0.0000
   1832 C         135.6180  218.4338  110.9682 C.3     116        0    0.0000
   1833 C         135.0643  217.7959  109.6790 C.3     116        0    0.0000
   1834 C         134.4533  218.7720  108.6690 C.3     116        0    0.0000
   1835 H         134.0262  215.8856  109.3984 H       116        0    0.0000
   1836 H         133.1369  217.0421  110.4056 H       116        0    0.0000
   1837 H         134.1606  215.5634  112.0304 H       116        0    0.0000
   1838 H         135.6871  215.5392  111.1293 H       116        0    0.0000
   1839 H         134.3701  217.8635  112.6046 H       116        0    0.0000
   1840 H         137.2409  216.8814  112.7399 H       116        0    0.0000
   1841 H         136.5934  218.2797  113.5889 H       116        0    0.0000
   1842 H         136.6969  218.5920  110.8640 H       116        0    0.0000
   1843 H         135.1809  219.4157  111.1791 H       116        0    0.0000
   1844 H         135.9155  217.3153  109.1735 H       116        0    0.0000
   1845 H         135.1487  219.6047  108.5101 H       116        0    0.0000
   1846 H         134.3425  218.2654  107.7029 H       116        0    0.0000
   1847 C         131.5279  217.0851  111.7274 C.3     117        0    0.0000
   1848 C         132.4447  217.2864  110.5289 C.3     117        0    0.0000
   1849 C         132.5454  218.8119  110.4281 C.3     117        0    0.0000
   1850 C         133.0695  219.3494  109.0930 C.3     117        0    0.0000
   1851 C         131.1631  219.3392  110.8600 C.3     117        0    0.0000
   1852 C         130.4402  218.1414  111.5068 C.3     117        0    0.0000
   1853 C         129.5849  218.4706  112.7341 C.3     117        0    0.0000
   1854 H         131.1161  216.0717  111.7614 H       117        0    0.0000
   1855 H         132.0870  217.2564  112.6538 H       117        0    0.0000
   1856 H         133.4227  216.8187  110.6792 H       117        0    0.0000
   1857 H         131.9894  216.8435  109.6362 H       117        0    0.0000
   1858 H         133.2618  219.1358  111.1981 H       117        0    0.0000
   1859 H         132.3391  219.1272  108.3060 H       117        0    0.0000
   1860 H         133.1467  220.4416  109.1517 H       117        0    0.0000
   1861 H         130.5692  219.7149  110.0198 H       117        0    0.0000
   1862 H         131.2913  220.1814  111.5485 H       117        0    0.0000
   1863 H         129.7539  217.7386  110.7466 H       117        0    0.0000
   1864 H         128.8231  217.6920  112.8589 H       117        0    0.0000
   1865 H         130.2165  218.4398  113.6298 H       117        0    0.0000
   1866 C         129.9085  222.8987  110.8908 C.3     118        0    0.0000
   1867 C         130.3611  221.5685  111.4909 C.3     118        0    0.0000
   1868 C         129.1745  220.5983  111.3579 C.3     118        0    0.0000
   1869 C         128.8772  219.8573  112.6682 C.3     118        0    0.0000
   1870 C         128.0128  221.4680  110.8531 C.3     118        0    0.0000
   1871 C         128.6803  222.5803  110.0343 C.3     118        0    0.0000
   1872 C         129.0737  222.1625  108.6057 C.3     118        0    0.0000
   1873 H         129.6159  223.5740  111.7050 H       118        0    0.0000
   1874 H         130.7105  223.3929  110.3336 H       118        0    0.0000
   1875 H         130.6839  221.7076  112.5285 H       118        0    0.0000
   1876 H         131.2212  221.1756  110.9361 H       118        0    0.0000
   1877 H         129.4257  219.8633  110.5801 H       118        0    0.0000
   1878 H         127.7963  219.7263  112.7949 H       118        0    0.0000
   1879 H         129.2238  220.4636  113.5137 H       118        0    0.0000
   1880 H         127.2858  220.8875  110.2768 H       118        0    0.0000
   1881 H         127.4776  221.9174  111.6997 H       118        0    0.0000
   1882 H         128.0252  223.4596  109.9863 H       118        0    0.0000
   1883 H         128.4617  221.3250  108.2538 H       118        0    0.0000
   1884 H         130.1131  221.8126  108.6054 H       118        0    0.0000
   1885 C         128.9641  223.3439  107.6007 C.3     119        0    0.0000
   1886 C         128.5074  222.9271  106.1953 C.3     119        0    0.0000
   1887 H         128.2189  224.0388  108.0087 H       119        0    0.0000
   1888 H         129.9148  223.8888  107.5659 H       119        0    0.0000
   1889 H         129.3478  222.5578  105.5959 H       119        0    0.0000
   1890 H         127.8049  222.0903  106.2998 H       119        0    0.0000
   1891 C         129.1250  227.5836  105.2562 C.3     120        0    0.0000
   1892 C         129.3401  226.0840  105.1205 C.3     120        0    0.0000
   1893 C         128.1249  225.4812  105.8366 C.3     120        0    0.0000
   1894 C         127.7535  224.0554  105.4096 C.3     120        0    0.0000
   1895 C         126.9993  226.5272  105.7004 C.3     120        0    0.0000
   1896 C         127.6265  227.7404  104.9894 C.3     120        0    0.0000
   1897 C         127.0966  229.0991  105.4541 C.3     120        0    0.0000
   1898 H         129.3833  227.9141  106.2697 H       120        0    0.0000
   1899 H         129.7335  228.1507  104.5453 H       120        0    0.0000
   1900 H         129.3709  225.8131  104.0596 H       120        0    0.0000
   1901 H         130.2829  225.7637  105.5751 H       120        0    0.0000
   1902 H         128.3761  225.4283  106.9064 H       120        0    0.0000
   1903 H         126.6742  223.9141  105.5421 H       120        0    0.0000
   1904 H         127.9564  223.9379  104.3385 H       120        0    0.0000
   1905 H         126.6393  226.7963  106.7012 H       120        0    0.0000
   1906 H         126.1337  226.1565  105.1413 H       120        0    0.0000
   1907 H         127.4560  227.6304  103.9085 H       120        0    0.0000
   1908 H         127.0961  229.1505  106.5493 H       120        0    0.0000
   1909 H         127.7698  229.8900  105.1024 H       120        0    0.0000
   1910 C         125.6639  229.3924  104.9270 C.3     121        0    0.0000
   1911 C         125.5032  230.7839  104.2982 C.3     121        0    0.0000
   1912 H         125.4511  228.6429  104.1540 H       121        0    0.0000
   1913 H         124.9347  229.2307  105.7295 H       121        0    0.0000
   1914 H         124.5229  231.2160  104.5309 H       121        0    0.0000
   1915 H         126.2533  231.4485  104.7458 H       121        0    0.0000
   1916 C         125.7393  230.8137  102.7483 C.3     122        0    0.0000
   1917 C         125.0152  231.9607  102.0289 C.3     122        0    0.0000
   1918 H         126.8184  230.9429  102.5947 H       122        0    0.0000
   1919 H         125.4753  229.8416  102.3156 H       122        0    0.0000
   1920 H         123.9266  231.8542  102.1035 H       122        0    0.0000
   1921 H         125.2743  232.8986  102.5368 H       122        0    0.0000
   1922 C         124.1635  235.6622  100.1143 C.3     123        0    0.0000
   1923 C         123.9325  234.1641  100.2395 C.3     123        0    0.0000
   1924 C         125.3360  233.5841  100.0529 C.3     123        0    0.0000
   1925 C         125.4277  232.1312  100.5258 C.3     123        0    0.0000
   1926 C         126.2428  234.5678  100.8149 C.3     123        0    0.0000
   1927 C         125.4579  235.8927  100.9046 C.3     123        0    0.0000
   1928 C         126.2453  237.1516  100.5196 C.3     123        0    0.0000
   1929 H         123.3277  236.2399  100.5212 H       123        0    0.0000
   1930 H         124.2718  235.9289   99.0574 H       123        0    0.0000
   1931 H         123.5334  233.9231  101.2323 H       123        0    0.0000
   1932 H         123.2284  233.7939   99.4880 H       123        0    0.0000
   1933 H         125.5919  233.6388   98.9846 H       123        0    0.0000
   1934 H         124.7936  231.4897   99.9023 H       123        0    0.0000
   1935 H         126.4566  231.7736  100.4004 H       123        0    0.0000
   1936 H         126.4535  234.2084  101.8299 H       123        0    0.0000
   1937 H         127.2085  234.6740  100.3096 H       123        0    0.0000
   1938 H         125.1721  236.0170  101.9598 H       123        0    0.0000
   1939 H         127.1196  237.2416  101.1751 H       123        0    0.0000
   1940 H         125.6204  238.0330  100.7068 H       123        0    0.0000
   1941 H         126.5786  237.1743   99.4821 H       123        0    0.0000
   1942 H         154.1881  144.6777   47.8692 H         0        0    0.0000
@<TRIPOS>BOND
     1     1     2      1
     2     1     6      1
     3     1     8      1
     4     1     9      1
     5     2     3      1
     6     2    10      1
     7     2    11      1
     8     3     4      1
     9     3     5      1
    10     3    12      1
    11     4    13      1
    12     4    14      1
    13     4  1942      H
    14     5     6      1
    15     5    15      1
    16     5    16      1
    17     6     7      1
    18     6    17      1
    19     7    18      1
    20     7    19      1
    21     7    23      1
    22    20    21      1
    23    20    25      1
    24    20    27      1
    25    20    28      1
    26    21    22      1
    27    21    29      1
    28    21    30      1
    29    22    23      1
    30    22    24      1
    31    22    31      1
    32    23    32      1
    33    23    33      1
    34    24    25      1
    35    24    34      1
    36    24    35      1
    37    25    26      1
    38    25    36      1
    39    26    37      1
    40    26    38      1
    41    26    39      1
    42    39    40      1
    43    39    41      1
    44    39    42      1
    45    40    43      1
    46    40    44      1
    47    40    48      1
    48    45    46      1
    49    45    50      1
    50    45    52      1
    51    45    53      1
    52    46    47      1
    53    46    54      1
    54    46    55      1
    55    47    48      1
    56    47    49      1
    57    47    56      1
    58    48    57      1
    59    48    58      1
    60    49    50      1
    61    49    59      1
    62    49    60      1
    63    50    51      1
    64    50    61      1
    65    51    62      1
    66    51    63      1
    67    51    64      1
    68    64    65      1
    69    64    66      1
    70    64    67      1
    71    65    68      1
    72    65    69      1
    73    65    73      1
    74    70    71      1
    75    70    75      1
    76    70    77      1
    77    70    78      1
    78    71    72      1
    79    71    79      1
    80    71    80      1
    81    72    73      1
    82    72    74      1
    83    72    81      1
    84    73    82      1
    85    73    83      1
    86    74    75      1
    87    74    84      1
    88    74    85      1
    89    75    76      1
    90    75    86      1
    91    76    87      1
    92    76    88      1
    93    76    92      1
    94    89    90      1
    95    89    94      1
    96    89    96      1
    97    89    97      1
    98    90    91      1
    99    90    98      1
   100    90    99      1
   101    91    92      1
   102    91    93      1
   103    91   100      1
   104    92   101      1
   105    92   102      1
   106    93    94      1
   107    93   103      1
   108    93   104      1
   109    94    95      1
   110    94   105      1
   111    95   106      1
   112    95   107      1
   113    95   108      1
   114   108   109      1
   115   108   110      1
   116   108   111      1
   117   109   112      1
   118   109   113      1
   119   109   114      1
   120   114   115      1
   121   114   116      1
   122   114   117      1
   123   115   118      1
   124   115   119      1
   125   115   120      1
   126   120   121      1
   127   120   122      1
   128   120   123      1
   129   121   124      1
   130   121   125      1
   131   121   126      1
   132   126   127      1
   133   126   128      1
   134   126   129      1
   135   127   130      1
   136   127   131      1
   137   127   135      1
   138   132   133      1
   139   132   137      1
   140   132   139      1
   141   132   140      1
   142   133   134      1
   143   133   141      1
   144   133   142      1
   145   134   135      1
   146   134   136      1
   147   134   143      1
   148   135   144      1
   149   135   145      1
   150   136   137      1
   151   136   146      1
   152   136   147      1
   153   137   138      1
   154   137   148      1
   155   138   149      1
   156   138   150      1
   157   138   154      1
   158   151   152      1
   159   151   156      1
   160   151   158      1
   161   151   159      1
   162   152   153      1
   163   152   160      1
   164   152   161      1
   165   153   154      1
   166   153   155      1
   167   153   162      1
   168   154   163      1
   169   154   164      1
   170   155   156      1
   171   155   165      1
   172   155   166      1
   173   156   157      1
   174   156   167      1
   175   157   168      1
   176   157   169      1
   177   157   170      1
   178   170   171      1
   179   170   172      1
   180   170   173      1
   181   171   174      1
   182   171   175      1
   183   171   179      1
   184   176   177      1
   185   176   181      1
   186   176   183      1
   187   176   184      1
   188   177   178      1
   189   177   185      1
   190   177   186      1
   191   178   179      1
   192   178   180      1
   193   178   187      1
   194   179   188      1
   195   179   189      1
   196   180   181      1
   197   180   190      1
   198   180   191      1
   199   181   182      1
   200   181   192      1
   201   182   193      1
   202   182   194      1
   203   182   195      1
   204   195   196      1
   205   195   197      1
   206   195   198      1
   207   196   199      1
   208   196   200      1
   209   196   204      1
   210   201   202      1
   211   201   206      1
   212   201   208      1
   213   201   209      1
   214   202   203      1
   215   202   210      1
   216   202   211      1
   217   203   204      1
   218   203   205      1
   219   203   212      1
   220   204   213      1
   221   204   214      1
   222   205   206      1
   223   205   215      1
   224   205   216      1
   225   206   207      1
   226   206   217      1
   227   207   218      1
   228   207   219      1
   229   207   223      1
   230   220   221      1
   231   220   225      1
   232   220   227      1
   233   220   228      1
   234   221   222      1
   235   221   229      1
   236   221   230      1
   237   222   223      1
   238   222   224      1
   239   222   231      1
   240   223   232      1
   241   223   233      1
   242   224   225      1
   243   224   234      1
   244   224   235      1
   245   225   226      1
   246   225   236      1
   247   226   237      1
   248   226   238      1
   249   226   242      1
   250   239   240      1
   251   239   244      1
   252   239   246      1
   253   239   247      1
   254   240   241      1
   255   240   248      1
   256   240   249      1
   257   241   242      1
   258   241   243      1
   259   241   250      1
   260   242   251      1
   261   242   252      1
   262   243   244      1
   263   243   253      1
   264   243   254      1
   265   244   245      1
   266   244   255      1
   267   245   256      1
   268   245   257      1
   269   245   261      1
   270   258   259      1
   271   258   263      1
   272   258   265      1
   273   258   266      1
   274   259   260      1
   275   259   267      1
   276   259   268      1
   277   260   261      1
   278   260   262      1
   279   260   269      1
   280   261   270      1
   281   261   271      1
   282   262   263      1
   283   262   272      1
   284   262   273      1
   285   263   264      1
   286   263   274      1
   287   264   275      1
   288   264   276      1
   289   264   277      1
   290   277   278      1
   291   277   279      1
   292   277   280      1
   293   278   281      1
   294   278   282      1
   295   278   286      1
   296   283   284      1
   297   283   288      1
   298   283   290      1
   299   283   291      1
   300   284   285      1
   301   284   292      1
   302   284   293      1
   303   285   286      1
   304   285   287      1
   305   285   294      1
   306   286   295      1
   307   286   296      1
   308   287   288      1
   309   287   297      1
   310   287   298      1
   311   288   289      1
   312   288   299      1
   313   289   300      1
   314   289   301      1
   315   289   305      1
   316   302   303      1
   317   302   307      1
   318   302   309      1
   319   302   310      1
   320   303   304      1
   321   303   311      1
   322   303   312      1
   323   304   305      1
   324   304   306      1
   325   304   313      1
   326   305   314      1
   327   305   315      1
   328   306   307      1
   329   306   316      1
   330   306   317      1
   331   307   308      1
   332   307   318      1
   333   308   319      1
   334   308   320      1
   335   308   324      1
   336   321   322      1
   337   321   326      1
   338   321   328      1
   339   321   329      1
   340   322   323      1
   341   322   330      1
   342   322   331      1
   343   323   324      1
   344   323   325      1
   345   323   332      1
   346   324   333      1
   347   324   334      1
   348   325   326      1
   349   325   335      1
   350   325   336      1
   351   326   327      1
   352   326   337      1
   353   327   338      1
   354   327   339      1
   355   327   343      1
   356   340   341      1
   357   340   345      1
   358   340   347      1
   359   340   348      1
   360   341   342      1
   361   341   349      1
   362   341   350      1
   363   342   343      1
   364   342   344      1
   365   342   351      1
   366   343   352      1
   367   343   353      1
   368   344   345      1
   369   344   354      1
   370   344   355      1
   371   345   346      1
   372   345   356      1
   373   346   357      1
   374   346   358      1
   375   346   362      1
   376   359   360      1
   377   359   364      1
   378   359   366      1
   379   359   367      1
   380   360   361      1
   381   360   368      1
   382   360   369      1
   383   361   362      1
   384   361   363      1
   385   361   370      1
   386   362   371      1
   387   362   372      1
   388   363   364      1
   389   363   373      1
   390   363   374      1
   391   364   365      1
   392   364   375      1
   393   365   376      1
   394   365   377      1
   395   365   381      1
   396   378   379      1
   397   378   383      1
   398   378   385      1
   399   378   386      1
   400   379   380      1
   401   379   387      1
   402   379   388      1
   403   380   381      1
   404   380   382      1
   405   380   389      1
   406   381   390      1
   407   381   391      1
   408   382   383      1
   409   382   392      1
   410   382   393      1
   411   383   384      1
   412   383   394      1
   413   384   395      1
   414   384   396      1
   415   384   397      1
   416   397   398      1
   417   397   399      1
   418   397   400      1
   419   398   401      1
   420   398   402      1
   421   398   406      1
   422   403   404      1
   423   403   408      1
   424   403   410      1
   425   403   411      1
   426   404   405      1
   427   404   412      1
   428   404   413      1
   429   405   406      1
   430   405   407      1
   431   405   414      1
   432   406   415      1
   433   406   416      1
   434   407   408      1
   435   407   417      1
   436   407   418      1
   437   408   409      1
   438   408   419      1
   439   409   420      1
   440   409   421      1
   441   409   425      1
   442   422   423      1
   443   422   427      1
   444   422   429      1
   445   422   430      1
   446   423   424      1
   447   423   431      1
   448   423   432      1
   449   424   425      1
   450   424   426      1
   451   424   433      1
   452   425   434      1
   453   425   435      1
   454   426   427      1
   455   426   436      1
   456   426   437      1
   457   427   428      1
   458   427   438      1
   459   428   439      1
   460   428   440      1
   461   428   444      1
   462   441   442      1
   463   441   446      1
   464   441   448      1
   465   441   449      1
   466   442   443      1
   467   442   450      1
   468   442   451      1
   469   443   444      1
   470   443   445      1
   471   443   452      1
   472   444   453      1
   473   444   454      1
   474   445   446      1
   475   445   455      1
   476   445   456      1
   477   446   447      1
   478   446   457      1
   479   447   458      1
   480   447   459      1
   481   447   463      1
   482   460   461      1
   483   460   465      1
   484   460   467      1
   485   460   468      1
   486   461   462      1
   487   461   469      1
   488   461   470      1
   489   462   463      1
   490   462   464      1
   491   462   471      1
   492   463   472      1
   493   463   473      1
   494   464   465      1
   495   464   474      1
   496   464   475      1
   497   465   466      1
   498   465   476      1
   499   466   477      1
   500   466   478      1
   501   466   479      1
   502   479   480      1
   503   479   481      1
   504   479   482      1
   505   480   483      1
   506   480   484      1
   507   480   488      1
   508   485   486      1
   509   485   490      1
   510   485   492      1
   511   485   493      1
   512   486   487      1
   513   486   494      1
   514   486   495      1
   515   487   488      1
   516   487   489      1
   517   487   496      1
   518   488   497      1
   519   488   498      1
   520   489   490      1
   521   489   499      1
   522   489   500      1
   523   490   491      1
   524   490   501      1
   525   491   502      1
   526   491   503      1
   527   491   507      1
   528   504   505      1
   529   504   509      1
   530   504   511      1
   531   504   512      1
   532   505   506      1
   533   505   513      1
   534   505   514      1
   535   506   507      1
   536   506   508      1
   537   506   515      1
   538   507   516      1
   539   507   517      1
   540   508   509      1
   541   508   518      1
   542   508   519      1
   543   509   510      1
   544   509   520      1
   545   510   521      1
   546   510   522      1
   547   510   526      1
   548   523   524      1
   549   523   528      1
   550   523   530      1
   551   523   531      1
   552   524   525      1
   553   524   532      1
   554   524   533      1
   555   525   526      1
   556   525   527      1
   557   525   534      1
   558   526   535      1
   559   526   536      1
   560   527   528      1
   561   527   537      1
   562   527   538      1
   563   528   529      1
   564   528   539      1
   565   529   540      1
   566   529   541      1
   567   529   545      1
   568   542   543      1
   569   542   547      1
   570   542   549      1
   571   542   550      1
   572   543   544      1
   573   543   551      1
   574   543   552      1
   575   544   545      1
   576   544   546      1
   577   544   553      1
   578   545   554      1
   579   545   555      1
   580   546   547      1
   581   546   556      1
   582   546   557      1
   583   547   548      1
   584   547   558      1
   585   548   559      1
   586   548   560      1
   587   548   564      1
   588   561   562      1
   589   561   566      1
   590   561   568      1
   591   561   569      1
   592   562   563      1
   593   562   570      1
   594   562   571      1
   595   563   564      1
   596   563   565      1
   597   563   572      1
   598   564   573      1
   599   564   574      1
   600   565   566      1
   601   565   575      1
   602   565   576      1
   603   566   567      1
   604   566   577      1
   605   567   578      1
   606   567   579      1
   607   567   583      1
   608   580   581      1
   609   580   585      1
   610   580   587      1
   611   580   588      1
   612   581   582      1
   613   581   589      1
   614   581   590      1
   615   582   583      1
   616   582   584      1
   617   582   591      1
   618   583   592      1
   619   583   593      1
   620   584   585      1
   621   584   594      1
   622   584   595      1
   623   585   586      1
   624   585   596      1
   625   586   597      1
   626   586   598      1
   627   586   602      1
   628   599   600      1
   629   599   604      1
   630   599   606      1
   631   599   607      1
   632   600   601      1
   633   600   608      1
   634   600   609      1
   635   601   602      1
   636   601   603      1
   637   601   610      1
   638   602   611      1
   639   602   612      1
   640   603   604      1
   641   603   613      1
   642   603   614      1
   643   604   605      1
   644   604   615      1
   645   605   616      1
   646   605   617      1
   647   605   621      1
   648   618   619      1
   649   618   623      1
   650   618   625      1
   651   618   626      1
   652   619   620      1
   653   619   627      1
   654   619   628      1
   655   620   621      1
   656   620   622      1
   657   620   629      1
   658   621   630      1
   659   621   631      1
   660   622   623      1
   661   622   632      1
   662   622   633      1
   663   623   624      1
   664   623   634      1
   665   624   635      1
   666   624   636      1
   667   624   640      1
   668   637   638      1
   669   637   642      1
   670   637   644      1
   671   637   645      1
   672   638   639      1
   673   638   646      1
   674   638   647      1
   675   639   640      1
   676   639   641      1
   677   639   648      1
   678   640   649      1
   679   640   650      1
   680   641   642      1
   681   641   651      1
   682   641   652      1
   683   642   643      1
   684   642   653      1
   685   643   654      1
   686   643   655      1
   687   643   659      1
   688   656   657      1
   689   656   661      1
   690   656   663      1
   691   656   664      1
   692   657   658      1
   693   657   665      1
   694   657   666      1
   695   658   659      1
   696   658   660      1
   697   658   667      1
   698   659   668      1
   699   659   669      1
   700   660   661      1
   701   660   670      1
   702   660   671      1
   703   661   662      1
   704   661   672      1
   705   662   673      1
   706   662   674      1
   707   662   675      1
   708   675   676      1
   709   675   677      1
   710   675   678      1
   711   676   679      1
   712   676   680      1
   713   676   684      1
   714   681   682      1
   715   681   686      1
   716   681   688      1
   717   681   689      1
   718   682   683      1
   719   682   690      1
   720   682   691      1
   721   683   684      1
   722   683   685      1
   723   683   692      1
   724   684   693      1
   725   684   694      1
   726   685   686      1
   727   685   695      1
   728   685   696      1
   729   686   687      1
   730   686   697      1
   731   687   698      1
   732   687   699      1
   733   687   703      1
   734   700   701      1
   735   700   705      1
   736   700   707      1
   737   700   708      1
   738   701   702      1
   739   701   709      1
   740   701   710      1
   741   702   703      1
   742   702   704      1
   743   702   711      1
   744   703   712      1
   745   703   713      1
   746   704   705      1
   747   704   714      1
   748   704   715      1
   749   705   706      1
   750   705   716      1
   751   706   717      1
   752   706   718      1
   753   706   722      1
   754   719   720      1
   755   719   724      1
   756   719   726      1
   757   719   727      1
   758   720   721      1
   759   720   728      1
   760   720   729      1
   761   721   722      1
   762   721   723      1
   763   721   730      1
   764   722   731      1
   765   722   732      1
   766   723   724      1
   767   723   733      1
   768   723   734      1
   769   724   725      1
   770   724   735      1
   771   725   736      1
   772   725   737      1
   773   725   741      1
   774   738   739      1
   775   738   743      1
   776   738   745      1
   777   738   746      1
   778   739   740      1
   779   739   747      1
   780   739   748      1
   781   740   741      1
   782   740   742      1
   783   740   749      1
   784   741   750      1
   785   741   751      1
   786   742   743      1
   787   742   752      1
   788   742   753      1
   789   743   744      1
   790   743   754      1
   791   744   755      1
   792   744   756      1
   793   744   760      1
   794   757   758      1
   795   757   762      1
   796   757   764      1
   797   757   765      1
   798   758   759      1
   799   758   766      1
   800   758   767      1
   801   759   760      1
   802   759   761      1
   803   759   768      1
   804   760   769      1
   805   760   770      1
   806   761   762      1
   807   761   771      1
   808   761   772      1
   809   762   763      1
   810   762   773      1
   811   763   774      1
   812   763   775      1
   813   763   779      1
   814   776   777      1
   815   776   781      1
   816   776   783      1
   817   776   784      1
   818   777   778      1
   819   777   785      1
   820   777   786      1
   821   778   779      1
   822   778   780      1
   823   778   787      1
   824   779   788      1
   825   779   789      1
   826   780   781      1
   827   780   790      1
   828   780   791      1
   829   781   782      1
   830   781   792      1
   831   782   793      1
   832   782   794      1
   833   782   795      1
   834   795   796      1
   835   795   797      1
   836   795   798      1
   837   796   799      1
   838   796   800      1
   839   796   804      1
   840   801   802      1
   841   801   806      1
   842   801   808      1
   843   801   809      1
   844   802   803      1
   845   802   810      1
   846   802   811      1
   847   803   804      1
   848   803   805      1
   849   803   812      1
   850   804   813      1
   851   804   814      1
   852   805   806      1
   853   805   815      1
   854   805   816      1
   855   806   807      1
   856   806   817      1
   857   807   818      1
   858   807   819      1
   859   807   823      1
   860   820   821      1
   861   820   825      1
   862   820   827      1
   863   820   828      1
   864   821   822      1
   865   821   829      1
   866   821   830      1
   867   822   823      1
   868   822   824      1
   869   822   831      1
   870   823   832      1
   871   823   833      1
   872   824   825      1
   873   824   834      1
   874   824   835      1
   875   825   826      1
   876   825   836      1
   877   826   837      1
   878   826   838      1
   879   826   839      1
   880   839   840      1
   881   839   841      1
   882   839   842      1
   883   840   843      1
   884   840   844      1
   885   840   848      1
   886   845   846      1
   887   845   850      1
   888   845   852      1
   889   845   853      1
   890   846   847      1
   891   846   854      1
   892   846   855      1
   893   847   848      1
   894   847   849      1
   895   847   856      1
   896   848   857      1
   897   848   858      1
   898   849   850      1
   899   849   859      1
   900   849   860      1
   901   850   851      1
   902   850   861      1
   903   851   862      1
   904   851   863      1
   905   851   867      1
   906   864   865      1
   907   864   869      1
   908   864   871      1
   909   864   872      1
   910   865   866      1
   911   865   873      1
   912   865   874      1
   913   866   867      1
   914   866   868      1
   915   866   875      1
   916   867   876      1
   917   867   877      1
   918   868   869      1
   919   868   878      1
   920   868   879      1
   921   869   870      1
   922   869   880      1
   923   870   881      1
   924   870   882      1
   925   870   883      1
   926   883   884      1
   927   883   885      1
   928   883   886      1
   929   884   887      1
   930   884   888      1
   931   884   892      1
   932   889   890      1
   933   889   894      1
   934   889   896      1
   935   889   897      1
   936   890   891      1
   937   890   898      1
   938   890   899      1
   939   891   892      1
   940   891   893      1
   941   891   900      1
   942   892   901      1
   943   892   902      1
   944   893   894      1
   945   893   903      1
   946   893   904      1
   947   894   895      1
   948   894   905      1
   949   895   906      1
   950   895   907      1
   951   895   908      1
   952   908   909      1
   953   908   910      1
   954   908   911      1
   955   909   912      1
   956   909   913      1
   957   909   917      1
   958   914   915      1
   959   914   919      1
   960   914   921      1
   961   914   922      1
   962   915   916      1
   963   915   923      1
   964   915   924      1
   965   916   917      1
   966   916   918      1
   967   916   925      1
   968   917   926      1
   969   917   927      1
   970   918   919      1
   971   918   928      1
   972   918   929      1
   973   919   920      1
   974   919   930      1
   975   920   931      1
   976   920   932      1
   977   920   936      1
   978   933   934      1
   979   933   938      1
   980   933   940      1
   981   933   941      1
   982   934   935      1
   983   934   942      1
   984   934   943      1
   985   935   936      1
   986   935   937      1
   987   935   944      1
   988   936   945      1
   989   936   946      1
   990   937   938      1
   991   937   947      1
   992   937   948      1
   993   938   939      1
   994   938   949      1
   995   939   950      1
   996   939   951      1
   997   939   955      1
   998   952   953      1
   999   952   957      1
  1000   952   959      1
  1001   952   960      1
  1002   953   954      1
  1003   953   961      1
  1004   953   962      1
  1005   954   955      1
  1006   954   956      1
  1007   954   963      1
  1008   955   964      1
  1009   955   965      1
  1010   956   957      1
  1011   956   966      1
  1012   956   967      1
  1013   957   958      1
  1014   957   968      1
  1015   958   969      1
  1016   958   970      1
  1017   958   971      1
  1018   971   972      1
  1019   971   973      1
  1020   971   974      1
  1021   972   975      1
  1022   972   976      1
  1023   972   980      1
  1024   977   978      1
  1025   977   982      1
  1026   977   984      1
  1027   977   985      1
  1028   978   979      1
  1029   978   986      1
  1030   978   987      1
  1031   979   980      1
  1032   979   981      1
  1033   979   988      1
  1034   980   989      1
  1035   980   990      1
  1036   981   982      1
  1037   981   991      1
  1038   981   992      1
  1039   982   983      1
  1040   982   993      1
  1041   983   994      1
  1042   983   995      1
  1043   983   999      1
  1044   996   997      1
  1045   996  1001      1
  1046   996  1003      1
  1047   996  1004      1
  1048   997   998      1
  1049   997  1005      1
  1050   997  1006      1
  1051   998   999      1
  1052   998  1000      1
  1053   998  1007      1
  1054   999  1008      1
  1055   999  1009      1
  1056  1000  1001      1
  1057  1000  1010      1
  1058  1000  1011      1
  1059  1001  1002      1
  1060  1001  1012      1
  1061  1002  1013      1
  1062  1002  1014      1
  1063  1002  1015      1
  1064  1015  1016      1
  1065  1015  1017      1
  1066  1015  1018      1
  1067  1016  1019      1
  1068  1016  1020      1
  1069  1016  1024      1
  1070  1021  1022      1
  1071  1021  1026      1
  1072  1021  1028      1
  1073  1021  1029      1
  1074  1022  1023      1
  1075  1022  1030      1
  1076  1022  1031      1
  1077  1023  1024      1
  1078  1023  1025      1
  1079  1023  1032      1
  1080  1024  1033      1
  1081  1024  1034      1
  1082  1025  1026      1
  1083  1025  1035      1
  1084  1025  1036      1
  1085  1026  1027      1
  1086  1026  1037      1
  1087  1027  1038      1
  1088  1027  1039      1
  1089  1027  1043      1
  1090  1040  1041      1
  1091  1040  1045      1
  1092  1040  1047      1
  1093  1040  1048      1
  1094  1041  1042      1
  1095  1041  1049      1
  1096  1041  1050      1
  1097  1042  1043      1
  1098  1042  1044      1
  1099  1042  1051      1
  1100  1043  1052      1
  1101  1043  1053      1
  1102  1044  1045      1
  1103  1044  1054      1
  1104  1044  1055      1
  1105  1045  1046      1
  1106  1045  1056      1
  1107  1046  1057      1
  1108  1046  1058      1
  1109  1046  1059      1
  1110  1059  1060      1
  1111  1059  1061      1
  1112  1059  1062      1
  1113  1060  1063      1
  1114  1060  1064      1
  1115  1060  1068      1
  1116  1065  1066      1
  1117  1065  1070      1
  1118  1065  1072      1
  1119  1065  1073      1
  1120  1066  1067      1
  1121  1066  1074      1
  1122  1066  1075      1
  1123  1067  1068      1
  1124  1067  1069      1
  1125  1067  1076      1
  1126  1068  1077      1
  1127  1068  1078      1
  1128  1069  1070      1
  1129  1069  1079      1
  1130  1069  1080      1
  1131  1070  1071      1
  1132  1070  1081      1
  1133  1071  1082      1
  1134  1071  1083      1
  1135  1071  1087      1
  1136  1084  1085      1
  1137  1084  1089      1
  1138  1084  1091      1
  1139  1084  1092      1
  1140  1085  1086      1
  1141  1085  1093      1
  1142  1085  1094      1
  1143  1086  1087      1
  1144  1086  1088      1
  1145  1086  1095      1
  1146  1087  1096      1
  1147  1087  1097      1
  1148  1088  1089      1
  1149  1088  1098      1
  1150  1088  1099      1
  1151  1089  1090      1
  1152  1089  1100      1
  1153  1090  1101      1
  1154  1090  1102      1
  1155  1090  1103      1
  1156  1103  1104      1
  1157  1103  1105      1
  1158  1103  1106      1
  1159  1104  1107      1
  1160  1104  1108      1
  1161  1104  1109      1
  1162  1109  1110      1
  1163  1109  1111      1
  1164  1109  1112      1
  1165  1110  1113      1
  1166  1110  1114      1
  1167  1110  1118      1
  1168  1115  1116      1
  1169  1115  1120      1
  1170  1115  1122      1
  1171  1115  1123      1
  1172  1116  1117      1
  1173  1116  1124      1
  1174  1116  1125      1
  1175  1117  1118      1
  1176  1117  1119      1
  1177  1117  1126      1
  1178  1118  1127      1
  1179  1118  1128      1
  1180  1119  1120      1
  1181  1119  1129      1
  1182  1119  1130      1
  1183  1120  1121      1
  1184  1120  1131      1
  1185  1121  1132      1
  1186  1121  1133      1
  1187  1121  1137      1
  1188  1134  1135      1
  1189  1134  1139      1
  1190  1134  1141      1
  1191  1134  1142      1
  1192  1135  1136      1
  1193  1135  1143      1
  1194  1135  1144      1
  1195  1136  1137      1
  1196  1136  1138      1
  1197  1136  1145      1
  1198  1137  1146      1
  1199  1137  1147      1
  1200  1138  1139      1
  1201  1138  1148      1
  1202  1138  1149      1
  1203  1139  1140      1
  1204  1139  1150      1
  1205  1140  1151      1
  1206  1140  1152      1
  1207  1140  1153      1
  1208  1153  1154      1
  1209  1153  1155      1
  1210  1153  1156      1
  1211  1154  1157      1
  1212  1154  1158      1
  1213  1154  1162      1
  1214  1159  1160      1
  1215  1159  1164      1
  1216  1159  1166      1
  1217  1159  1167      1
  1218  1160  1161      1
  1219  1160  1168      1
  1220  1160  1169      1
  1221  1161  1162      1
  1222  1161  1163      1
  1223  1161  1170      1
  1224  1162  1171      1
  1225  1162  1172      1
  1226  1163  1164      1
  1227  1163  1173      1
  1228  1163  1174      1
  1229  1164  1165      1
  1230  1164  1175      1
  1231  1165  1176      1
  1232  1165  1177      1
  1233  1165  1181      1
  1234  1178  1179      1
  1235  1178  1183      1
  1236  1178  1185      1
  1237  1178  1186      1
  1238  1179  1180      1
  1239  1179  1187      1
  1240  1179  1188      1
  1241  1180  1181      1
  1242  1180  1182      1
  1243  1180  1189      1
  1244  1181  1190      1
  1245  1181  1191      1
  1246  1182  1183      1
  1247  1182  1192      1
  1248  1182  1193      1
  1249  1183  1184      1
  1250  1183  1194      1
  1251  1184  1195      1
  1252  1184  1196      1
  1253  1184  1200      1
  1254  1197  1198      1
  1255  1197  1202      1
  1256  1197  1204      1
  1257  1197  1205      1
  1258  1198  1199      1
  1259  1198  1206      1
  1260  1198  1207      1
  1261  1199  1200      1
  1262  1199  1201      1
  1263  1199  1208      1
  1264  1200  1209      1
  1265  1200  1210      1
  1266  1201  1202      1
  1267  1201  1211      1
  1268  1201  1212      1
  1269  1202  1203      1
  1270  1202  1213      1
  1271  1203  1214      1
  1272  1203  1215      1
  1273  1203  1219      1
  1274  1216  1217      1
  1275  1216  1221      1
  1276  1216  1223      1
  1277  1216  1224      1
  1278  1217  1218      1
  1279  1217  1225      1
  1280  1217  1226      1
  1281  1218  1219      1
  1282  1218  1220      1
  1283  1218  1227      1
  1284  1219  1228      1
  1285  1219  1229      1
  1286  1220  1221      1
  1287  1220  1230      1
  1288  1220  1231      1
  1289  1221  1222      1
  1290  1221  1232      1
  1291  1222  1233      1
  1292  1222  1234      1
  1293  1222  1235      1
  1294  1235  1236      1
  1295  1235  1237      1
  1296  1235  1238      1
  1297  1236  1239      1
  1298  1236  1240      1
  1299  1236  1244      1
  1300  1241  1242      1
  1301  1241  1246      1
  1302  1241  1248      1
  1303  1241  1249      1
  1304  1242  1243      1
  1305  1242  1250      1
  1306  1242  1251      1
  1307  1243  1244      1
  1308  1243  1245      1
  1309  1243  1252      1
  1310  1244  1253      1
  1311  1244  1254      1
  1312  1245  1246      1
  1313  1245  1255      1
  1314  1245  1256      1
  1315  1246  1247      1
  1316  1246  1257      1
  1317  1247  1258      1
  1318  1247  1259      1
  1319  1247  1260      1
  1320  1260  1261      1
  1321  1260  1262      1
  1322  1260  1263      1
  1323  1261  1264      1
  1324  1261  1265      1
  1325  1261  1269      1
  1326  1266  1267      1
  1327  1266  1271      1
  1328  1266  1273      1
  1329  1266  1274      1
  1330  1267  1268      1
  1331  1267  1275      1
  1332  1267  1276      1
  1333  1268  1269      1
  1334  1268  1270      1
  1335  1268  1277      1
  1336  1269  1278      1
  1337  1269  1279      1
  1338  1270  1271      1
  1339  1270  1280      1
  1340  1270  1281      1
  1341  1271  1272      1
  1342  1271  1282      1
  1343  1272  1283      1
  1344  1272  1284      1
  1345  1272  1288      1
  1346  1285  1286      1
  1347  1285  1290      1
  1348  1285  1292      1
  1349  1285  1293      1
  1350  1286  1287      1
  1351  1286  1294      1
  1352  1286  1295      1
  1353  1287  1288      1
  1354  1287  1289      1
  1355  1287  1296      1
  1356  1288  1297      1
  1357  1288  1298      1
  1358  1289  1290      1
  1359  1289  1299      1
  1360  1289  1300      1
  1361  1290  1291      1
  1362  1290  1301      1
  1363  1291  1302      1
  1364  1291  1303      1
  1365  1291  1307      1
  1366  1304  1305      1
  1367  1304  1309      1
  1368  1304  1311      1
  1369  1304  1312      1
  1370  1305  1306      1
  1371  1305  1313      1
  1372  1305  1314      1
  1373  1306  1307      1
  1374  1306  1308      1
  1375  1306  1315      1
  1376  1307  1316      1
  1377  1307  1317      1
  1378  1308  1309      1
  1379  1308  1318      1
  1380  1308  1319      1
  1381  1309  1310      1
  1382  1309  1320      1
  1383  1310  1321      1
  1384  1310  1322      1
  1385  1310  1326      1
  1386  1323  1324      1
  1387  1323  1328      1
  1388  1323  1330      1
  1389  1323  1331      1
  1390  1324  1325      1
  1391  1324  1332      1
  1392  1324  1333      1
  1393  1325  1326      1
  1394  1325  1327      1
  1395  1325  1334      1
  1396  1326  1335      1
  1397  1326  1336      1
  1398  1327  1328      1
  1399  1327  1337      1
  1400  1327  1338      1
  1401  1328  1329      1
  1402  1328  1339      1
  1403  1329  1340      1
  1404  1329  1341      1
  1405  1329  1342      1
  1406  1342  1343      1
  1407  1342  1344      1
  1408  1342  1345      1
  1409  1343  1346      1
  1410  1343  1347      1
  1411  1343  1348      1
  1412  1348  1349      1
  1413  1348  1350      1
  1414  1348  1351      1
  1415  1349  1352      1
  1416  1349  1353      1
  1417  1349  1357      1
  1418  1354  1355      1
  1419  1354  1359      1
  1420  1354  1361      1
  1421  1354  1362      1
  1422  1355  1356      1
  1423  1355  1363      1
  1424  1355  1364      1
  1425  1356  1357      1
  1426  1356  1358      1
  1427  1356  1365      1
  1428  1357  1366      1
  1429  1357  1367      1
  1430  1358  1359      1
  1431  1358  1368      1
  1432  1358  1369      1
  1433  1359  1360      1
  1434  1359  1370      1
  1435  1360  1371      1
  1436  1360  1372      1
  1437  1360  1373      1
  1438  1373  1374      1
  1439  1373  1375      1
  1440  1373  1376      1
  1441  1374  1377      1
  1442  1374  1378      1
  1443  1374  1382      1
  1444  1379  1380      1
  1445  1379  1384      1
  1446  1379  1386      1
  1447  1379  1387      1
  1448  1380  1381      1
  1449  1380  1388      1
  1450  1380  1389      1
  1451  1381  1382      1
  1452  1381  1383      1
  1453  1381  1390      1
  1454  1382  1391      1
  1455  1382  1392      1
  1456  1383  1384      1
  1457  1383  1393      1
  1458  1383  1394      1
  1459  1384  1385      1
  1460  1384  1395      1
  1461  1385  1396      1
  1462  1385  1397      1
  1463  1385  1398      1
  1464  1398  1399      1
  1465  1398  1400      1
  1466  1398  1401      1
  1467  1399  1402      1
  1468  1399  1403      1
  1469  1399  1404      1
  1470  1404  1405      1
  1471  1404  1406      1
  1472  1404  1407      1
  1473  1405  1408      1
  1474  1405  1409      1
  1475  1405  1413      1
  1476  1410  1411      1
  1477  1410  1415      1
  1478  1410  1417      1
  1479  1410  1418      1
  1480  1411  1412      1
  1481  1411  1419      1
  1482  1411  1420      1
  1483  1412  1413      1
  1484  1412  1414      1
  1485  1412  1421      1
  1486  1413  1422      1
  1487  1413  1423      1
  1488  1414  1415      1
  1489  1414  1424      1
  1490  1414  1425      1
  1491  1415  1416      1
  1492  1415  1426      1
  1493  1416  1427      1
  1494  1416  1428      1
  1495  1416  1432      1
  1496  1429  1430      1
  1497  1429  1434      1
  1498  1429  1436      1
  1499  1429  1437      1
  1500  1430  1431      1
  1501  1430  1438      1
  1502  1430  1439      1
  1503  1431  1432      1
  1504  1431  1433      1
  1505  1431  1440      1
  1506  1432  1441      1
  1507  1432  1442      1
  1508  1433  1434      1
  1509  1433  1443      1
  1510  1433  1444      1
  1511  1434  1435      1
  1512  1434  1445      1
  1513  1435  1446      1
  1514  1435  1447      1
  1515  1435  1451      1
  1516  1448  1449      1
  1517  1448  1453      1
  1518  1448  1455      1
  1519  1448  1456      1
  1520  1449  1450      1
  1521  1449  1457      1
  1522  1449  1458      1
  1523  1450  1451      1
  1524  1450  1452      1
  1525  1450  1459      1
  1526  1451  1460      1
  1527  1451  1461      1
  1528  1452  1453      1
  1529  1452  1462      1
  1530  1452  1463      1
  1531  1453  1454      1
  1532  1453  1464      1
  1533  1454  1465      1
  1534  1454  1466      1
  1535  1454  1470      1
  1536  1467  1468      1
  1537  1467  1472      1
  1538  1467  1474      1
  1539  1467  1475      1
  1540  1468  1469      1
  1541  1468  1476      1
  1542  1468  1477      1
  1543  1469  1470      1
  1544  1469  1471      1
  1545  1469  1478      1
  1546  1470  1479      1
  1547  1470  1480      1
  1548  1471  1472      1
  1549  1471  1481      1
  1550  1471  1482      1
  1551  1472  1473      1
  1552  1472  1483      1
  1553  1473  1484      1
  1554  1473  1485      1
  1555  1473  1489      1
  1556  1486  1487      1
  1557  1486  1491      1
  1558  1486  1493      1
  1559  1486  1494      1
  1560  1487  1488      1
  1561  1487  1495      1
  1562  1487  1496      1
  1563  1488  1489      1
  1564  1488  1490      1
  1565  1488  1497      1
  1566  1489  1498      1
  1567  1489  1499      1
  1568  1490  1491      1
  1569  1490  1500      1
  1570  1490  1501      1
  1571  1491  1492      1
  1572  1491  1502      1
  1573  1492  1503      1
  1574  1492  1504      1
  1575  1492  1508      1
  1576  1505  1506      1
  1577  1505  1510      1
  1578  1505  1512      1
  1579  1505  1513      1
  1580  1506  1507      1
  1581  1506  1514      1
  1582  1506  1515      1
  1583  1507  1508      1
  1584  1507  1509      1
  1585  1507  1516      1
  1586  1508  1517      1
  1587  1508  1518      1
  1588  1509  1510      1
  1589  1509  1519      1
  1590  1509  1520      1
  1591  1510  1511      1
  1592  1510  1521      1
  1593  1511  1522      1
  1594  1511  1523      1
  1595  1511  1527      1
  1596  1524  1525      1
  1597  1524  1529      1
  1598  1524  1531      1
  1599  1524  1532      1
  1600  1525  1526      1
  1601  1525  1533      1
  1602  1525  1534      1
  1603  1526  1527      1
  1604  1526  1528      1
  1605  1526  1535      1
  1606  1527  1536      1
  1607  1527  1537      1
  1608  1528  1529      1
  1609  1528  1538      1
  1610  1528  1539      1
  1611  1529  1530      1
  1612  1529  1540      1
  1613  1530  1541      1
  1614  1530  1542      1
  1615  1530  1546      1
  1616  1543  1544      1
  1617  1543  1548      1
  1618  1543  1550      1
  1619  1543  1551      1
  1620  1544  1545      1
  1621  1544  1552      1
  1622  1544  1553      1
  1623  1545  1546      1
  1624  1545  1547      1
  1625  1545  1554      1
  1626  1546  1555      1
  1627  1546  1556      1
  1628  1547  1548      1
  1629  1547  1557      1
  1630  1547  1558      1
  1631  1548  1549      1
  1632  1548  1559      1
  1633  1549  1560      1
  1634  1549  1561      1
  1635  1549  1565      1
  1636  1562  1563      1
  1637  1562  1567      1
  1638  1562  1569      1
  1639  1562  1570      1
  1640  1563  1564      1
  1641  1563  1571      1
  1642  1563  1572      1
  1643  1564  1565      1
  1644  1564  1566      1
  1645  1564  1573      1
  1646  1565  1574      1
  1647  1565  1575      1
  1648  1566  1567      1
  1649  1566  1576      1
  1650  1566  1577      1
  1651  1567  1568      1
  1652  1567  1578      1
  1653  1568  1579      1
  1654  1568  1580      1
  1655  1568  1584      1
  1656  1581  1582      1
  1657  1581  1586      1
  1658  1581  1588      1
  1659  1581  1589      1
  1660  1582  1583      1
  1661  1582  1590      1
  1662  1582  1591      1
  1663  1583  1584      1
  1664  1583  1585      1
  1665  1583  1592      1
  1666  1584  1593      1
  1667  1584  1594      1
  1668  1585  1586      1
  1669  1585  1595      1
  1670  1585  1596      1
  1671  1586  1587      1
  1672  1586  1597      1
  1673  1587  1598      1
  1674  1587  1599      1
  1675  1587  1603      1
  1676  1600  1601      1
  1677  1600  1605      1
  1678  1600  1607      1
  1679  1600  1608      1
  1680  1601  1602      1
  1681  1601  1609      1
  1682  1601  1610      1
  1683  1602  1603      1
  1684  1602  1604      1
  1685  1602  1611      1
  1686  1603  1612      1
  1687  1603  1613      1
  1688  1604  1605      1
  1689  1604  1614      1
  1690  1604  1615      1
  1691  1605  1606      1
  1692  1605  1616      1
  1693  1606  1617      1
  1694  1606  1618      1
  1695  1606  1622      1
  1696  1619  1620      1
  1697  1619  1624      1
  1698  1619  1626      1
  1699  1619  1627      1
  1700  1620  1621      1
  1701  1620  1628      1
  1702  1620  1629      1
  1703  1621  1622      1
  1704  1621  1623      1
  1705  1621  1630      1
  1706  1622  1631      1
  1707  1622  1632      1
  1708  1623  1624      1
  1709  1623  1633      1
  1710  1623  1634      1
  1711  1624  1625      1
  1712  1624  1635      1
  1713  1625  1636      1
  1714  1625  1637      1
  1715  1625  1641      1
  1716  1638  1639      1
  1717  1638  1643      1
  1718  1638  1645      1
  1719  1638  1646      1
  1720  1639  1640      1
  1721  1639  1647      1
  1722  1639  1648      1
  1723  1640  1641      1
  1724  1640  1642      1
  1725  1640  1649      1
  1726  1641  1650      1
  1727  1641  1651      1
  1728  1642  1643      1
  1729  1642  1652      1
  1730  1642  1653      1
  1731  1643  1644      1
  1732  1643  1654      1
  1733  1644  1655      1
  1734  1644  1656      1
  1735  1644  1660      1
  1736  1657  1658      1
  1737  1657  1662      1
  1738  1657  1664      1
  1739  1657  1665      1
  1740  1658  1659      1
  1741  1658  1666      1
  1742  1658  1667      1
  1743  1659  1660      1
  1744  1659  1661      1
  1745  1659  1668      1
  1746  1660  1669      1
  1747  1660  1670      1
  1748  1661  1662      1
  1749  1661  1671      1
  1750  1661  1672      1
  1751  1662  1663      1
  1752  1662  1673      1
  1753  1663  1674      1
  1754  1663  1675      1
  1755  1663  1679      1
  1756  1676  1677      1
  1757  1676  1681      1
  1758  1676  1683      1
  1759  1676  1684      1
  1760  1677  1678      1
  1761  1677  1685      1
  1762  1677  1686      1
  1763  1678  1679      1
  1764  1678  1680      1
  1765  1678  1687      1
  1766  1679  1688      1
  1767  1679  1689      1
  1768  1680  1681      1
  1769  1680  1690      1
  1770  1680  1691      1
  1771  1681  1682      1
  1772  1681  1692      1
  1773  1682  1693      1
  1774  1682  1694      1
  1775  1682  1698      1
  1776  1695  1696      1
  1777  1695  1700      1
  1778  1695  1702      1
  1779  1695  1703      1
  1780  1696  1697      1
  1781  1696  1704      1
  1782  1696  1705      1
  1783  1697  1698      1
  1784  1697  1699      1
  1785  1697  1706      1
  1786  1698  1707      1
  1787  1698  1708      1
  1788  1699  1700      1
  1789  1699  1709      1
  1790  1699  1710      1
  1791  1700  1701      1
  1792  1700  1711      1
  1793  1701  1712      1
  1794  1701  1713      1
  1795  1701  1717      1
  1796  1714  1715      1
  1797  1714  1719      1
  1798  1714  1721      1
  1799  1714  1722      1
  1800  1715  1716      1
  1801  1715  1723      1
  1802  1715  1724      1
  1803  1716  1717      1
  1804  1716  1718      1
  1805  1716  1725      1
  1806  1717  1726      1
  1807  1717  1727      1
  1808  1718  1719      1
  1809  1718  1728      1
  1810  1718  1729      1
  1811  1719  1720      1
  1812  1719  1730      1
  1813  1720  1731      1
  1814  1720  1732      1
  1815  1720  1736      1
  1816  1733  1734      1
  1817  1733  1738      1
  1818  1733  1740      1
  1819  1733  1741      1
  1820  1734  1735      1
  1821  1734  1742      1
  1822  1734  1743      1
  1823  1735  1736      1
  1824  1735  1737      1
  1825  1735  1744      1
  1826  1736  1745      1
  1827  1736  1746      1
  1828  1737  1738      1
  1829  1737  1747      1
  1830  1737  1748      1
  1831  1738  1739      1
  1832  1738  1749      1
  1833  1739  1750      1
  1834  1739  1751      1
  1835  1739  1755      1
  1836  1752  1753      1
  1837  1752  1757      1
  1838  1752  1759      1
  1839  1752  1760      1
  1840  1753  1754      1
  1841  1753  1761      1
  1842  1753  1762      1
  1843  1754  1755      1
  1844  1754  1756      1
  1845  1754  1763      1
  1846  1755  1764      1
  1847  1755  1765      1
  1848  1756  1757      1
  1849  1756  1766      1
  1850  1756  1767      1
  1851  1757  1758      1
  1852  1757  1768      1
  1853  1758  1769      1
  1854  1758  1770      1
  1855  1758  1774      1
  1856  1771  1772      1
  1857  1771  1776      1
  1858  1771  1778      1
  1859  1771  1779      1
  1860  1772  1773      1
  1861  1772  1780      1
  1862  1772  1781      1
  1863  1773  1774      1
  1864  1773  1775      1
  1865  1773  1782      1
  1866  1774  1783      1
  1867  1774  1784      1
  1868  1775  1776      1
  1869  1775  1785      1
  1870  1775  1786      1
  1871  1776  1777      1
  1872  1776  1787      1
  1873  1777  1788      1
  1874  1777  1789      1
  1875  1777  1793      1
  1876  1790  1791      1
  1877  1790  1795      1
  1878  1790  1797      1
  1879  1790  1798      1
  1880  1791  1792      1
  1881  1791  1799      1
  1882  1791  1800      1
  1883  1792  1793      1
  1884  1792  1794      1
  1885  1792  1801      1
  1886  1793  1802      1
  1887  1793  1803      1
  1888  1794  1795      1
  1889  1794  1804      1
  1890  1794  1805      1
  1891  1795  1796      1
  1892  1795  1806      1
  1893  1796  1807      1
  1894  1796  1808      1
  1895  1796  1812      1
  1896  1809  1810      1
  1897  1809  1814      1
  1898  1809  1816      1
  1899  1809  1817      1
  1900  1810  1811      1
  1901  1810  1818      1
  1902  1810  1819      1
  1903  1811  1812      1
  1904  1811  1813      1
  1905  1811  1820      1
  1906  1812  1821      1
  1907  1812  1822      1
  1908  1813  1814      1
  1909  1813  1823      1
  1910  1813  1824      1
  1911  1814  1815      1
  1912  1814  1825      1
  1913  1815  1826      1
  1914  1815  1827      1
  1915  1815  1831      1
  1916  1828  1829      1
  1917  1828  1833      1
  1918  1828  1835      1
  1919  1828  1836      1
  1920  1829  1830      1
  1921  1829  1837      1
  1922  1829  1838      1
  1923  1830  1831      1
  1924  1830  1832      1
  1925  1830  1839      1
  1926  1831  1840      1
  1927  1831  1841      1
  1928  1832  1833      1
  1929  1832  1842      1
  1930  1832  1843      1
  1931  1833  1834      1
  1932  1833  1844      1
  1933  1834  1845      1
  1934  1834  1846      1
  1935  1834  1850      1
  1936  1847  1848      1
  1937  1847  1852      1
  1938  1847  1854      1
  1939  1847  1855      1
  1940  1848  1849      1
  1941  1848  1856      1
  1942  1848  1857      1
  1943  1849  1850      1
  1944  1849  1851      1
  1945  1849  1858      1
  1946  1850  1859      1
  1947  1850  1860      1
  1948  1851  1852      1
  1949  1851  1861      1
  1950  1851  1862      1
  1951  1852  1853      1
  1952  1852  1863      1
  1953  1853  1864      1
  1954  1853  1865      1
  1955  1853  1869      1
  1956  1866  1867      1
  1957  1866  1871      1
  1958  1866  1873      1
  1959  1866  1874      1
  1960  1867  1868      1
  1961  1867  1875      1
  1962  1867  1876      1
  1963  1868  1869      1
  1964  1868  1870      1
  1965  1868  1877      1
  1966  1869  1878      1
  1967  1869  1879      1
  1968  1870  1871      1
  1969  1870  1880      1
  1970  1870  1881      1
  1971  1871  1872      1
  1972  1871  1882      1
  1973  1872  1883      1
  1974  1872  1884      1
  1975  1872  1885      1
  1976  1885  1886      1
  1977  1885  1887      1
  1978  1885  1888      1
  1979  1886  1889      1
  1980  1886  1890      1
  1981  1886  1894      1
  1982  1891  1892      1
  1983  1891  1896      1
  1984  1891  1898      1
  1985  1891  1899      1
  1986  1892  1893      1
  1987  1892  1900      1
  1988  1892  1901      1
  1989  1893  1894      1
  1990  1893  1895      1
  1991  1893  1902      1
  1992  1894  1903      1
  1993  1894  1904      1
  1994  1895  1896      1
  1995  1895  1905      1
  1996  1895  1906      1
  1997  1896  1897      1
  1998  1896  1907      1
  1999  1897  1908      1
  2000  1897  1909      1
  2001  1897  1910      1
  2002  1910  1911      1
  2003  1910  1912      1
  2004  1910  1913      1
  2005  1911  1914      1
  2006  1911  1915      1
  2007  1911  1916      1
  2008  1916  1917      1
  2009  1916  1918      1
  2010  1916  1919      1
  2011  1917  1920      1
  2012  1917  1921      1
  2013  1917  1925      1
  2014  1922  1923      1
  2015  1922  1927      1
  2016  1922  1929      1
  2017  1922  1930      1
  2018  1923  1924      1
  2019  1923  1931      1
  2020  1923  1932      1
  2021  1924  1925      1
  2022  1924  1926      1
  2023  1924  1933      1
  2024  1925  1934      1
  2025  1925  1935      1
  2026  1926  1927      1
  2027  1926  1936      1
  2028  1926  1937      1
  2029  1927  1928      1
  2030  1927  1938      1
  2031  1928  1939      1
  2032  1928  1940      1
  2033  1928  1941      H
