###
### Created by PolyChef-cpp17 on Wed Feb 26 21:14:12 2025
###

@<TRIPOS>MOLECULE
NO_INFO
1179 1233 1 0 0
SMALL
USER_CHARGES


@<TRIPOS>ATOM
      1 C         237.2520  135.8803  109.9290 C.3       0        0    0.0000
      2 C         237.8718  136.8139  108.8986 C.3       0        0    0.0000
      3 C         239.3688  136.5106  109.0194 C.3       0        0    0.0000
      4 C         240.3034  137.5578  108.4060 C.3       0        0    0.0000
      5 C         239.6018  136.2050  110.5119 C.3       0        0    0.0000
      6 C         238.2007  136.0131  111.1248 C.3       0        0    0.0000
      7 C         238.0871  134.9086  112.1800 C.3       0        0    0.0000
      8 H         236.2281  136.1725  110.1819 H         0        0    0.0000
      9 H         237.2267  134.8585  109.5345 H         0        0    0.0000
     10 H         237.4928  136.6195  107.8905 H         0        0    0.0000
     11 H         237.6400  137.8536  109.1546 H         0        0    0.0000
     12 H         239.5492  135.5726  108.4729 H         0        0    0.0000
     13 H         240.4293  138.3845  109.1152 H         0        0    0.0000
     14 H         241.2949  137.1127  108.2617 H         0        0    0.0000
     15 H         240.1229  137.0136  111.0358 H         0        0    0.0000
     16 H         240.2344  135.3161  110.6091 H         0        0    0.0000
     17 H         237.9455  136.9563  111.6311 H         0        0    0.0000
     18 H         237.0613  134.5215  112.1840 H         0        0    0.0000
     19 H         238.7380  134.0732  111.8959 H         0        0    0.0000
     20 C         238.0937  133.1404  116.5744 C.3       1        0    0.0000
     21 C         238.1292  133.2352  115.0471 C.3       1        0    0.0000
     22 C         237.6134  134.6385  114.6812 C.3       1        0    0.0000
     23 C         238.4567  135.3623  113.6242 C.3       1        0    0.0000
     24 C         237.5772  135.3919  116.0147 C.3       1        0    0.0000
     25 C         237.2396  134.3185  117.0551 C.3       1        0    0.0000
     26 C         235.7338  133.9964  117.0995 C.3       1        0    0.0000
     27 H         237.7317  132.1651  116.9136 H         1        0    0.0000
     28 H         239.1151  133.2559  116.9592 H         1        0    0.0000
     29 H         239.1454  133.0470  114.6834 H         1        0    0.0000
     30 H         237.4796  132.4724  114.6023 H         1        0    0.0000
     31 H         236.5810  134.5421  114.3156 H         1        0    0.0000
     32 H         238.2886  136.4429  113.7032 H         1        0    0.0000
     33 H         239.5245  135.1928  113.8045 H         1        0    0.0000
     34 H         236.8542  136.2139  116.0018 H         1        0    0.0000
     35 H         238.5627  135.8207  116.2381 H         1        0    0.0000
     36 H         237.5715  134.6504  118.0471 H         1        0    0.0000
     37 H         235.5624  132.9188  117.1982 H         1        0    0.0000
     38 H         235.2670  134.3082  116.1576 H         1        0    0.0000
     39 C         235.0181  134.7403  118.2641 C.3       2        0    0.0000
     40 C         233.9142  133.9182  118.9445 C.3       2        0    0.0000
     41 H         235.7861  134.9664  119.0149 H         2        0    0.0000
     42 H         234.6355  135.7037  117.9073 H         2        0    0.0000
     43 H         233.0668  134.5507  119.2338 H         2        0    0.0000
     44 H         233.5303  133.1938  118.2147 H         2        0    0.0000
     45 C         231.4123  132.6915  122.3402 C.3       3        0    0.0000
     46 C         232.9384  132.6144  122.2513 C.3       3        0    0.0000
     47 C         233.2767  132.2541  120.7936 C.3       3        0    0.0000
     48 C         234.4061  133.0941  120.1845 C.3       3        0    0.0000
     49 C         231.9528  132.4232  120.0413 C.3       3        0    0.0000
     50 C         230.8770  132.0370  121.0620 C.3       3        0    0.0000
     51 C         230.7077  130.5111  121.1883 C.3       3        0    0.0000
     52 H         231.0343  132.2367  123.2608 H         3        0    0.0000
     53 H         231.1124  133.7472  122.3565 H         3        0    0.0000
     54 H         233.3809  133.5651  122.5685 H         3        0    0.0000
     55 H         233.3210  131.8385  122.9248 H         3        0    0.0000
     56 H         233.5567  131.1915  120.7570 H         3        0    0.0000
     57 H         234.7858  133.7935  120.9387 H         3        0    0.0000
     58 H         235.2463  132.4529  119.8941 H         3        0    0.0000
     59 H         231.9162  131.8125  119.1333 H         3        0    0.0000
     60 H         231.8144  133.4703  119.7424 H         3        0    0.0000
     61 H         229.9187  132.4883  120.7751 H         3        0    0.0000
     62 H         231.3409  130.1074  121.9862 H         3        0    0.0000
     63 H         231.0262  130.0312  120.2553 H         3        0    0.0000
     64 C         229.2268  130.1145  121.4559 C.3       4        0    0.0000
     65 C         228.8903  129.9257  122.9420 C.3       4        0    0.0000
     66 H         228.6050  130.9310  121.0670 H         4        0    0.0000
     67 H         228.9723  129.2217  120.8727 H         4        0    0.0000
     68 H         229.0448  128.8871  123.2572 H         4        0    0.0000
     69 H         229.5861  130.5386  123.5292 H         4        0    0.0000
     70 C         225.7202  132.9726  122.2715 C.3       5        0    0.0000
     71 C         227.2253  132.7575  122.4522 C.3       5        0    0.0000
     72 C         227.3949  131.8813  123.6982 C.3       5        0    0.0000
     73 C         227.4427  130.3862  123.3309 C.3       5        0    0.0000
     74 C         226.1826  132.2890  124.5450 C.3       5        0    0.0000
     75 C         225.0400  132.4192  123.5348 C.3       5        0    0.0000
     76 C         223.8882  133.2807  124.0650 C.3       5        0    0.0000
     77 H         225.5145  134.0381  122.1180 H         5        0    0.0000
     78 H         225.3587  132.4412  121.3837 H         5        0    0.0000
     79 H         227.7030  133.7301  122.6257 H         5        0    0.0000
     80 H         227.6874  132.3292  121.5569 H         5        0    0.0000
     81 H         228.3235  132.1500  124.2181 H         5        0    0.0000
     82 H         226.7823  130.2043  122.4744 H         5        0    0.0000
     83 H         227.0693  129.7635  124.1509 H         5        0    0.0000
     84 H         226.3815  133.2580  125.0213 H         5        0    0.0000
     85 H         225.9444  131.5762  125.3402 H         5        0    0.0000
     86 H         224.6593  131.4129  123.3103 H         5        0    0.0000
     87 H         223.0093  133.1829  123.4172 H         5        0    0.0000
     88 H         224.1834  134.3364  124.0433 H         5        0    0.0000
     89 C         219.8670  133.6166  126.2180 C.3       6        0    0.0000
     90 C         221.0317  133.4381  125.2406 C.3       6        0    0.0000
     91 C         222.3118  133.7075  126.0424 C.3       6        0    0.0000
     92 C         223.5044  132.8993  125.5236 C.3       6        0    0.0000
     93 C         221.8969  133.3814  127.4809 C.3       6        0    0.0000
     94 C         220.4919  133.9865  127.5697 C.3       6        0    0.0000
     95 C         219.6566  133.4891  128.7527 C.3       6        0    0.0000
     96 H         219.1756  134.3954  125.8787 H         6        0    0.0000
     97 H         219.2973  132.6817  126.2817 H         6        0    0.0000
     98 H         220.9493  134.1236  124.3904 H         6        0    0.0000
     99 H         221.0174  132.4181  124.8381 H         6        0    0.0000
    100 H         222.5371  134.7820  125.9773 H         6        0    0.0000
    101 H         223.2574  131.8313  125.5512 H         6        0    0.0000
    102 H         224.3727  133.0399  126.1780 H         6        0    0.0000
    103 H         222.5795  133.8234  128.2137 H         6        0    0.0000
    104 H         221.8688  132.2970  127.6455 H         6        0    0.0000
    105 H         220.5838  135.0814  127.6165 H         6        0    0.0000
    106 H         220.3086  133.0803  129.5334 H         6        0    0.0000
    107 H         219.0097  132.6687  128.4195 H         6        0    0.0000
    108 C         218.7641  134.6074  129.3575 C.3       7        0    0.0000
    109 C         217.3750  134.1260  129.8001 C.3       7        0    0.0000
    110 H         219.2901  134.9887  130.2421 H         7        0    0.0000
    111 H         218.6905  135.4434  128.6521 H         7        0    0.0000
    112 H         217.0022  133.3287  129.1464 H         7        0    0.0000
    113 H         217.4691  133.6909  130.8033 H         7        0    0.0000
    114 C         216.3067  135.2694  129.9010 C.3       8        0    0.0000
    115 C         214.8587  134.7869  129.7339 C.3       8        0    0.0000
    116 H         216.5246  135.9788  129.0925 H         8        0    0.0000
    117 H         216.4388  135.8163  130.8419 H         8        0    0.0000
    118 H         214.8729  133.8696  129.1314 H         8        0    0.0000
    119 H         214.4130  134.5207  130.6995 H         8        0    0.0000
    120 C         213.9301  135.8053  128.9861 C.3       9        0    0.0000
    121 C         212.6791  135.1685  128.3642 C.3       9        0    0.0000
    122 H         213.6027  136.5417  129.7312 H         9        0    0.0000
    123 H         214.5123  136.3549  128.2371 H         9        0    0.0000
    124 H         212.9459  134.4268  127.6022 H         9        0    0.0000
    125 H         212.1436  134.6274  129.1547 H         9        0    0.0000
    126 C         211.6691  136.2054  127.7614 C.3      10        0    0.0000
    127 C         210.2344  135.6747  127.6296 C.3      10        0    0.0000
    128 H         212.0333  136.4551  126.7566 H        10        0    0.0000
    129 H         211.6993  137.1329  128.3452 H        10        0    0.0000
    130 H         210.0503  135.4500  126.5712 H        10        0    0.0000
    131 H         210.1054  134.7334  128.1768 H        10        0    0.0000
    132 C         205.8914  135.6433  126.3933 C.3      11        0    0.0000
    133 C         207.4118  135.6211  126.4654 C.3      11        0    0.0000
    134 C         207.6970  136.2155  127.8486 C.3      11        0    0.0000
    135 C         209.1330  136.6988  128.0731 C.3      11        0    0.0000
    136 C         206.5976  137.2727  128.0704 C.3      11        0    0.0000
    137 C         205.5415  137.0157  126.9777 C.3      11        0    0.0000
    138 C         204.0838  137.1925  127.4137 C.3      11        0    0.0000
    139 H         205.5291  135.5288  125.3670 H        11        0    0.0000
    140 H         205.4805  134.8233  126.9925 H        11        0    0.0000
    141 H         207.8112  134.6073  126.3632 H        11        0    0.0000
    142 H         207.8294  136.2342  125.6593 H        11        0    0.0000
    143 H         207.5183  135.4152  128.5826 H        11        0    0.0000
    144 H         209.2843  137.6374  127.5268 H        11        0    0.0000
    145 H         209.2722  136.9272  129.1364 H        11        0    0.0000
    146 H         206.9706  138.2990  127.9848 H        11        0    0.0000
    147 H         206.1943  137.1742  129.0840 H        11        0    0.0000
    148 H         205.7220  137.7559  126.1836 H        11        0    0.0000
    149 H         203.7104  136.2404  127.8090 H        11        0    0.0000
    150 H         204.0412  137.9142  128.2380 H        11        0    0.0000
    151 C         199.4344  137.3631  125.5880 C.3      12        0    0.0000
    152 C         200.6215  138.1064  126.2060 C.3      12        0    0.0000
    153 C         201.7298  137.0630  126.3987 C.3      12        0    0.0000
    154 C         203.1297  137.6719  126.2788 C.3      12        0    0.0000
    155 C         201.4007  136.0057  125.3396 C.3      12        0    0.0000
    156 C         199.8748  135.9016  125.4331 C.3      12        0    0.0000
    157 C         199.2076  135.2162  124.2374 C.3      12        0    0.0000
    158 H         198.5421  137.4397  126.2186 H        12        0    0.0000
    159 H         199.1867  137.8125  124.6189 H        12        0    0.0000
    160 H         200.3499  138.5716  127.1597 H        12        0    0.0000
    161 H         200.9400  138.9103  125.5315 H        12        0    0.0000
    162 H         201.6068  136.6124  127.3943 H        12        0    0.0000
    163 H         203.0541  138.7649  126.3253 H        12        0    0.0000
    164 H         203.5689  137.4266  125.3048 H        12        0    0.0000
    165 H         201.8896  135.0493  125.5507 H        12        0    0.0000
    166 H         201.7113  136.3393  124.3415 H        12        0    0.0000
    167 H         199.6158  135.3658  126.3580 H        12        0    0.0000
    168 H         199.8691  135.2467  123.3638 H        12        0    0.0000
    169 H         198.2990  135.7668  123.9653 H        12        0    0.0000
    170 C         198.8200  133.7430  124.5413 C.3      13        0    0.0000
    171 C         197.5576  133.2662  123.8089 C.3      13        0    0.0000
    172 H         199.6609  133.1197  124.2112 H        13        0    0.0000
    173 H         198.7305  133.6004  125.6246 H        13        0    0.0000
    174 H         196.8903  134.1046  123.5770 H        13        0    0.0000
    175 H         197.8642  132.8342  122.8478 H        13        0    0.0000
    176 C         197.7315  132.7420  128.0626 C.3      14        0    0.0000
    177 C         197.5299  133.3654  126.6823 C.3      14        0    0.0000
    178 C         196.3988  132.5747  126.0022 C.3      14        0    0.0000
    179 C         196.7606  132.1522  124.5722 C.3      14        0    0.0000
    180 C         196.1187  131.3988  126.9506 C.3      14        0    0.0000
    181 C         196.4669  131.9277  128.3477 C.3      14        0    0.0000
    182 C         195.3647  132.7910  128.9881 C.3      14        0    0.0000
    183 H         198.5953  132.0661  128.0238 H        14        0    0.0000
    184 H         197.9447  133.4955  128.8273 H        14        0    0.0000
    185 H         198.4660  133.3452  126.1136 H        14        0    0.0000
    186 H         197.2356  134.4170  126.7807 H        14        0    0.0000
    187 H         195.5089  133.2191  125.9707 H        14        0    0.0000
    188 H         195.8552  131.8955  124.0102 H        14        0    0.0000
    189 H         197.3785  131.2469  124.6076 H        14        0    0.0000
    190 H         195.0867  131.0437  126.8704 H        14        0    0.0000
    191 H         196.7767  130.5527  126.7128 H        14        0    0.0000
    192 H         196.7082  131.0933  129.0187 H        14        0    0.0000
    193 H         195.0099  133.5611  128.2947 H        14        0    0.0000
    194 H         195.7780  133.3180  129.8567 H        14        0    0.0000
    195 C         194.1607  131.9351  129.4736 C.3      15        0    0.0000
    196 C         193.5925  132.3713  130.8316 C.3      15        0    0.0000
    197 H         193.3691  132.0465  128.7216 H        15        0    0.0000
    198 H         194.4398  130.8749  129.4800 H        15        0    0.0000
    199 H         194.3307  132.9406  131.4086 H        15        0    0.0000
    200 H         192.7492  133.0487  130.6461 H        15        0    0.0000
    201 C         191.0118  128.1427  131.4205 C.3      16        0    0.0000
    202 C         191.0165  129.6697  131.3665 C.3      16        0    0.0000
    203 C         192.4016  130.0882  130.8437 C.3      16        0    0.0000
    204 C         193.0405  131.1888  131.7008 C.3      16        0    0.0000
    205 C         193.2116  128.7835  130.7946 C.3      16        0    0.0000
    206 C         192.1734  127.6846  130.5349 C.3      16        0    0.0000
    207 C         191.7496  127.5529  129.0607 C.3      16        0    0.0000
    208 H         191.1978  127.8236  132.4540 H        16        0    0.0000
    209 H         190.0460  127.7233  131.1216 H        16        0    0.0000
    210 H         190.7891  130.0874  132.3534 H        16        0    0.0000
    211 H         190.2407  130.0269  130.6791 H        16        0    0.0000
    212 H         192.2758  130.4614  129.8175 H        16        0    0.0000
    213 H         193.8483  130.7732  132.3142 H        16        0    0.0000
    214 H         192.2907  131.5890  132.3939 H        16        0    0.0000
    215 H         193.9997  128.8180  130.0360 H        16        0    0.0000
    216 H         193.6953  128.5988  131.7626 H        16        0    0.0000
    217 H         192.5499  126.7169  130.8905 H        16        0    0.0000
    218 H         192.5478  127.8821  128.3868 H        16        0    0.0000
    219 H         190.8906  128.2084  128.8722 H        16        0    0.0000
    220 C         190.7142  125.1141  132.2888 C.3      17        0    0.0000
    221 C         191.5580  125.0559  131.0127 C.3      17        0    0.0000
    222 C         190.6112  125.3970  129.8545 C.3      17        0    0.0000
    223 C         191.3325  126.0989  128.7005 C.3      17        0    0.0000
    224 C         189.5217  126.2357  130.5308 C.3      17        0    0.0000
    225 C         189.2928  125.4879  131.8485 C.3      17        0    0.0000
    226 C         188.5450  126.2910  132.9164 C.3      17        0    0.0000
    227 H         190.7221  124.1550  132.8178 H        17        0    0.0000
    228 H         191.1337  125.8643  132.9698 H        17        0    0.0000
    229 H         192.0070  124.0664  130.8745 H        17        0    0.0000
    230 H         192.3799  125.7783  131.0852 H        17        0    0.0000
    231 H         190.1601  124.4611  129.4937 H        17        0    0.0000
    232 H         190.6707  126.1322  127.8268 H        17        0    0.0000
    233 H         192.2199  125.5278  128.4032 H        17        0    0.0000
    234 H         188.6107  126.2871  129.9261 H        17        0    0.0000
    235 H         189.8716  127.2591  130.7156 H        17        0    0.0000
    236 H         188.7451  124.5586  131.6338 H        17        0    0.0000
    237 H         187.6863  126.8076  132.4718 H        17        0    0.0000
    238 H         189.2085  127.0671  133.3163 H        17        0    0.0000
    239 C         188.8611  122.1437  135.6812 C.3      18        0    0.0000
    240 C         189.2282  123.6242  135.5546 C.3      18        0    0.0000
    241 C         188.8076  124.0627  134.1404 C.3      18        0    0.0000
    242 C         188.0601  125.4010  134.0935 C.3      18        0    0.0000
    243 C         187.9571  122.9007  133.6174 C.3      18        0    0.0000
    244 C         188.5734  121.6525  134.2582 C.3      18        0    0.0000
    245 C         189.8356  121.1735  133.5163 C.3      18        0    0.0000
    246 H         189.6400  121.5734  136.1962 H        18        0    0.0000
    247 H         187.9475  122.0566  136.2833 H        18        0    0.0000
    248 H         188.7343  124.2017  136.3438 H        18        0    0.0000
    249 H         190.3085  123.7615  135.6808 H        18        0    0.0000
    250 H         189.7111  124.1316  133.5177 H        18        0    0.0000
    251 H         186.9870  125.2134  133.9689 H        18        0    0.0000
    252 H         188.1805  125.9401  135.0403 H        18        0    0.0000
    253 H         187.9500  122.8576  132.5234 H        18        0    0.0000
    254 H         186.9170  123.0079  133.9517 H        18        0    0.0000
    255 H         187.8316  120.8439  134.2766 H        18        0    0.0000
    256 H         190.5004  120.6162  134.1855 H        18        0    0.0000
    257 H         190.3996  122.0432  133.1588 H        18        0    0.0000
    258 C         187.1024  120.8817  129.5017 C.3      19        0    0.0000
    259 C         188.0804  121.5090  130.4982 C.3      19        0    0.0000
    260 C         188.0831  120.6026  131.7422 C.3      19        0    0.0000
    261 C         189.4816  120.2873  132.2870 C.3      19        0    0.0000
    262 C         187.3321  119.3430  131.2986 C.3      19        0    0.0000
    263 C         186.2928  119.8479  130.2920 C.3      19        0    0.0000
    264 C         185.0519  120.4480  130.9799 C.3      19        0    0.0000
    265 H         186.4873  121.6375  129.0039 H        19        0    0.0000
    266 H         187.6760  120.3679  128.7197 H        19        0    0.0000
    267 H         189.0709  121.6065  130.0403 H        19        0    0.0000
    268 H         187.7502  122.5175  130.7734 H        19        0    0.0000
    269 H         187.4915  121.0936  132.5280 H        19        0    0.0000
    270 H         189.5235  119.2351  132.5929 H        19        0    0.0000
    271 H         190.2367  120.4206  131.5038 H        19        0    0.0000
    272 H         186.8823  118.8143  132.1452 H        19        0    0.0000
    273 H         188.0171  118.6460  130.7986 H        19        0    0.0000
    274 H         185.9843  119.0234  129.6368 H        19        0    0.0000
    275 H         184.2471  120.6270  130.2582 H        19        0    0.0000
    276 H         185.3116  121.4203  131.4151 H        19        0    0.0000
    277 C         184.5248  119.5316  132.1219 C.3      20        0    0.0000
    278 C         183.0888  119.0320  131.9084 C.3      20        0    0.0000
    279 H         185.1875  118.6575  132.1581 H        20        0    0.0000
    280 H         184.6297  120.0444  133.0852 H        20        0    0.0000
    281 H         182.5543  118.9356  132.8607 H        20        0    0.0000
    282 H         182.5497  119.7862  131.3210 H        20        0    0.0000
    283 C         185.5034  116.5410  133.5339 C.3      21        0    0.0000
    284 C         184.0258  116.8430  133.2890 C.3      21        0    0.0000
    285 C         183.7554  116.5468  131.8036 C.3      21        0    0.0000
    286 C         182.9947  117.6851  131.1110 C.3      21        0    0.0000
    287 C         185.1408  116.2633  131.2029 C.3      21        0    0.0000
    288 C         185.9579  115.6718  132.3586 C.3      21        0    0.0000
    289 C         185.6931  114.1775  132.6181 C.3      21        0    0.0000
    290 H         186.0647  117.4841  133.5239 H        21        0    0.0000
    291 H         185.6720  116.0749  134.5097 H        21        0    0.0000
    292 H         183.7963  117.8778  133.5661 H        21        0    0.0000
    293 H         183.3982  116.1958  133.9131 H        21        0    0.0000
    294 H         183.1543  115.6283  131.7471 H        21        0    0.0000
    295 H         181.9424  117.4110  130.9724 H        21        0    0.0000
    296 H         183.4145  117.8449  130.1105 H        21        0    0.0000
    297 H         185.0836  115.6006  130.3339 H        21        0    0.0000
    298 H         185.6114  117.1985  130.8726 H        21        0    0.0000
    299 H         187.0302  115.8232  132.1800 H        21        0    0.0000
    300 H         184.6739  113.8986  132.3299 H        21        0    0.0000
    301 H         185.7805  113.9769  133.6929 H        21        0    0.0000
    302 C         184.8018  110.2003  131.2208 C.3      22        0    0.0000
    303 C         186.0381  111.0226  130.8607 C.3      22        0    0.0000
    304 C         186.4532  111.7765  132.1359 C.3      22        0    0.0000
    305 C         186.7107  113.2664  131.8750 C.3      22        0    0.0000
    306 C         185.3210  111.5029  133.1380 C.3      22        0    0.0000
    307 C         184.7759  110.1227  132.7495 C.3      22        0    0.0000
    308 C         185.6139  108.9428  133.2751 C.3      22        0    0.0000
    309 H         183.9077  110.7321  130.8710 H        22        0    0.0000
    310 H         184.8045  109.2190  130.7359 H        22        0    0.0000
    311 H         185.8204  111.6920  130.0213 H        22        0    0.0000
    312 H         186.8532  110.3618  130.5425 H        22        0    0.0000
    313 H         187.3759  111.3148  132.5151 H        22        0    0.0000
    314 H         186.6770  113.4761  130.7996 H        22        0    0.0000
    315 H         187.7204  113.5246  132.2163 H        22        0    0.0000
    316 H         185.6696  111.5511  134.1742 H        22        0    0.0000
    317 H         184.5235  112.2487  133.0245 H        22        0    0.0000
    318 H         183.7405  110.0136  133.0966 H        22        0    0.0000
    319 H         185.6813  108.9590  134.3682 H        22        0    0.0000
    320 H         186.6395  109.0318  132.8968 H        22        0    0.0000
    321 C         181.5101  108.0749  131.8073 C.3      23        0    0.0000
    322 C         182.7245  108.6592  132.5330 C.3      23        0    0.0000
    323 C         183.5384  107.4643  133.0614 C.3      23        0    0.0000
    324 C         185.0475  107.5714  132.8100 C.3      23        0    0.0000
    325 C         182.9173  106.2448  132.3727 C.3      23        0    0.0000
    326 C         181.4347  106.6011  132.2207 C.3      23        0    0.0000
    327 C         180.6402  106.3770  133.5213 C.3      23        0    0.0000
    328 H         180.5978  108.6404  132.0196 H        23        0    0.0000
    329 H         181.6821  108.1366  130.7250 H        23        0    0.0000
    330 H         183.2980  109.2965  131.8509 H        23        0    0.0000
    331 H         182.4020  109.2890  133.3703 H        23        0    0.0000
    332 H         183.3577  107.3748  134.1421 H        23        0    0.0000
    333 H         185.5647  106.7766  133.3607 H        23        0    0.0000
    334 H         185.2706  107.4189  131.7478 H        23        0    0.0000
    335 H         183.0771  105.3251  132.9449 H        23        0    0.0000
    336 H         183.3622  106.0990  131.3798 H        23        0    0.0000
    337 H         180.9928  106.0012  131.4149 H        23        0    0.0000
    338 H         180.6011  107.2914  134.1237 H        23        0    0.0000
    339 H         181.1443  105.6164  134.1292 H        23        0    0.0000
    340 C         180.1709  102.6998  131.4108 C.3      24        0    0.0000
    341 C         180.3649  103.6784  132.5607 C.3      24        0    0.0000
    342 C         179.1145  104.5596  132.4742 C.3      24        0    0.0000
    343 C         179.1912  105.8864  133.2357 C.3      24        0    0.0000
    344 C         178.8023  104.6743  130.9693 C.3      24        0    0.0000
    345 C         179.6642  103.5993  130.2786 C.3      24        0    0.0000
    346 C         178.9975  102.8701  129.1081 C.3      24        0    0.0000
    347 H         181.1027  102.1906  131.1458 H        24        0    0.0000
    348 H         179.4355  101.9385  131.6929 H        24        0    0.0000
    349 H         180.4411  103.1662  133.5249 H        24        0    0.0000
    350 H         181.2852  104.2525  132.4068 H        24        0    0.0000
    351 H         178.2895  103.9877  132.9252 H        24        0    0.0000
    352 H         178.6642  106.6588  132.6631 H        24        0    0.0000
    353 H         178.6598  105.7835  134.1893 H        24        0    0.0000
    354 H         179.0469  105.6595  130.5576 H        24        0    0.0000
    355 H         177.7290  104.5292  130.8059 H        24        0    0.0000
    356 H         180.5428  104.1167  129.8647 H        24        0    0.0000
    357 H         177.9099  102.9841  129.1880 H        24        0    0.0000
    358 H         179.2965  103.3511  128.1692 H        24        0    0.0000
    359 C         177.6706   99.2370  131.6661 C.3      25        0    0.0000
    360 C         177.6226  100.2799  130.5600 C.3      25        0    0.0000
    361 C         179.0988  100.6215  130.3468 C.3      25        0    0.0000
    362 C         179.3368  101.3517  129.0227 C.3      25        0    0.0000
    363 C         179.8105   99.2617  130.4693 C.3      25        0    0.0000
    364 C         178.8589   98.3507  131.2719 C.3      25        0    0.0000
    365 C         179.5078   97.5742  132.4247 C.3      25        0    0.0000
    366 H         176.7387   98.6664  131.7303 H        25        0    0.0000
    367 H         177.8268   99.7328  132.6302 H        25        0    0.0000
    368 H         177.1805   99.8508  129.6525 H        25        0    0.0000
    369 H         177.0326  101.1554  130.8477 H        25        0    0.0000
    370 H         179.4288  101.2578  131.1808 H        25        0    0.0000
    371 H         180.3799  101.2319  128.7069 H        25        0    0.0000
    372 H         178.7172  100.8960  128.2412 H        25        0    0.0000
    373 H         179.9846   98.8147  129.4826 H        25        0    0.0000
    374 H         180.7916   99.3800  130.9411 H        25        0    0.0000
    375 H         178.4776   97.5969  130.5670 H        25        0    0.0000
    376 H         178.7413   97.3338  133.1710 H        25        0    0.0000
    377 H         180.2389   98.2220  132.9229 H        25        0    0.0000
    378 C         178.6916   94.6706  129.0083 C.3      26        0    0.0000
    379 C         178.6068   95.8056  130.0318 C.3      26        0    0.0000
    380 C         179.2474   95.2779  131.3281 C.3      26        0    0.0000
    381 C         180.2197   96.2597  131.9935 C.3      26        0    0.0000
    382 C         179.9310   93.9715  130.9121 C.3      26        0    0.0000
    383 C         179.0392   93.4062  129.8014 C.3      26        0    0.0000
    384 C         177.7994   92.6795  130.3562 C.3      26        0    0.0000
    385 H         177.7736   94.5840  128.4192 H        26        0    0.0000
    386 H         179.5055   94.8893  128.3051 H        26        0    0.0000
    387 H         179.1072   96.6992  129.6429 H        26        0    0.0000
    388 H         177.5604   96.0751  130.2168 H        26        0    0.0000
    389 H         178.4424   95.0317  132.0353 H        26        0    0.0000
    390 H         180.6555   95.7917  132.8843 H        26        0    0.0000
    391 H         181.0510   96.4924  131.3181 H        26        0    0.0000
    392 H         180.0478   93.2831  131.7554 H        26        0    0.0000
    393 H         180.9317   94.1754  130.5096 H        26        0    0.0000
    394 H         179.6205   92.7137  129.1795 H        26        0    0.0000
    395 H         176.9061   92.9151  129.7673 H        26        0    0.0000
    396 H         177.6052   93.0209  131.3800 H        26        0    0.0000
    397 C         178.0013   91.1368  130.3904 C.3      27        0    0.0000
    398 C         177.9686   90.5344  131.8023 C.3      27        0    0.0000
    399 H         177.1779   90.6966  129.8134 H        27        0    0.0000
    400 H         178.9273   90.8736  129.8658 H        27        0    0.0000
    401 H         178.3609   91.2385  132.5455 H        27        0    0.0000
    402 H         176.9203   90.3486  132.0690 H        27        0    0.0000
    403 C         177.3289   86.5689  129.5403 C.3      28        0    0.0000
    404 C         177.5301   88.0272  129.9230 C.3      28        0    0.0000
    405 C         177.9247   87.9581  131.4037 C.3      28        0    0.0000
    406 C         178.7174   89.1625  131.9273 C.3      28        0    0.0000
    407 C         178.6048   86.5862  131.5905 C.3      28        0    0.0000
    408 C         178.4998   85.8682  130.2326 C.3      28        0    0.0000
    409 C         178.2943   84.3541  130.3232 C.3      28        0    0.0000
    410 H         176.3675   86.2050  129.9231 H        28        0    0.0000
    411 H         177.3428   86.4243  128.4557 H        28        0    0.0000
    412 H         178.3223   88.4621  129.3041 H        28        0    0.0000
    413 H         176.6223   88.6189  129.7690 H        28        0    0.0000
    414 H         176.9904   87.9266  131.9839 H        28        0    0.0000
    415 H         178.9663   88.9934  132.9817 H        28        0    0.0000
    416 H         179.6691   89.2274  131.3866 H        28        0    0.0000
    417 H         178.0769   86.0302  132.3753 H        28        0    0.0000
    418 H         179.6504   86.6645  131.9065 H        28        0    0.0000
    419 H         179.4148   86.0805  129.6606 H        28        0    0.0000
    420 H         178.9896   83.8372  129.6512 H        28        0    0.0000
    421 H         178.5298   84.0168  131.3396 H        28        0    0.0000
    422 C         175.5492   80.3622  130.2335 C.3      29        0    0.0000
    423 C         175.2894   81.8599  130.1508 C.3      29        0    0.0000
    424 C         176.6593   82.4232  129.7591 C.3      29        0    0.0000
    425 C         176.8391   83.9282  129.9807 C.3      29        0    0.0000
    426 C         177.6873   81.5198  130.4679 C.3      29        0    0.0000
    427 C         176.8985   80.2888  130.9557 C.3      29        0    0.0000
    428 C         177.6315   78.9484  130.8450 C.3      29        0    0.0000
    429 H         174.7598   79.8400  130.7830 H        29        0    0.0000
    430 H         175.5984   79.9389  129.2242 H        29        0    0.0000
    431 H         174.5190   82.1009  129.4118 H        29        0    0.0000
    432 H         174.9541   82.2316  131.1253 H        29        0    0.0000
    433 H         176.7783   82.2501  128.6788 H        29        0    0.0000
    434 H         176.5183   84.4636  129.0792 H        29        0    0.0000
    435 H         176.1770   84.2526  130.7921 H        29        0    0.0000
    436 H         178.1668   82.0095  131.3223 H        29        0    0.0000
    437 H         178.4905   81.2613  129.7694 H        29        0    0.0000
    438 H         176.6964   80.4469  132.0259 H        29        0    0.0000
    439 H         176.9453   78.1408  131.1264 H        29        0    0.0000
    440 H         177.9078   78.7764  129.7980 H        29        0    0.0000
    441 C         179.9567   75.2262  131.9507 C.3      30        0    0.0000
    442 C         179.3748   76.4061  131.1872 C.3      30        0    0.0000
    443 C         179.1267   77.4384  132.2890 C.3      30        0    0.0000
    444 C         178.9137   78.8451  131.7245 C.3      30        0    0.0000
    445 C         180.3523   77.2928  133.2096 C.3      30        0    0.0000
    446 C         180.9217   75.8837  132.9455 C.3      30        0    0.0000
    447 C         181.2363   75.0556  134.1978 C.3      30        0    0.0000
    448 H         180.4700   74.5233  131.2870 H        30        0    0.0000
    449 H         179.1504   74.6828  132.4549 H        30        0    0.0000
    450 H         180.0994   76.7777  130.4525 H        30        0    0.0000
    451 H         178.4559   76.1379  130.6570 H        30        0    0.0000
    452 H         178.2347   77.1312  132.8542 H        30        0    0.0000
    453 H         178.8516   79.5748  132.5405 H        30        0    0.0000
    454 H         179.7814   79.1266  131.1161 H        30        0    0.0000
    455 H         181.1200   78.0387  132.9691 H        30        0    0.0000
    456 H         180.0712   77.4534  134.2557 H        30        0    0.0000
    457 H         181.8777   76.0253  132.4198 H        30        0    0.0000
    458 H         181.8040   74.1645  133.9047 H        30        0    0.0000
    459 H         180.2955   74.6990  134.6340 H        30        0    0.0000
    460 C         179.8791   76.3808  138.3579 C.3      31        0    0.0000
    461 C         180.1484   75.6341  137.0605 C.3      31        0    0.0000
    462 C         181.1579   76.5313  136.3333 C.3      31        0    0.0000
    463 C         182.0332   75.8226  135.2919 C.3      31        0    0.0000
    464 C         181.9246   77.2807  137.4425 C.3      31        0    0.0000
    465 C         181.2715   76.8611  138.7722 C.3      31        0    0.0000
    466 C         181.2100   77.9645  139.8314 C.3      31        0    0.0000
    467 H         179.2061   77.2276  138.1761 H        31        0    0.0000
    468 H         179.4218   75.7358  139.1145 H        31        0    0.0000
    469 H         180.5621   74.6453  137.2862 H        31        0    0.0000
    470 H         179.2348   75.4890  136.4755 H        31        0    0.0000
    471 H         180.5779   77.2893  135.7859 H        31        0    0.0000
    472 H         182.6754   76.5646  134.8027 H        31        0    0.0000
    473 H         182.7001   75.1187  135.8037 H        31        0    0.0000
    474 H         181.8274   78.3608  137.2761 H        31        0    0.0000
    475 H         182.9964   77.0566  137.4505 H        31        0    0.0000
    476 H         181.8281   76.0005  139.1712 H        31        0    0.0000
    477 H         180.2399   77.9449  140.3420 H        31        0    0.0000
    478 H         181.9722   77.7750  140.5966 H        31        0    0.0000
    479 C         181.4450   79.3797  139.2327 C.3      32        0    0.0000
    480 C         181.2557   80.5226  140.2402 C.3      32        0    0.0000
    481 H         182.4839   79.4057  138.8795 H        32        0    0.0000
    482 H         180.8102   79.5173  138.3495 H        32        0    0.0000
    483 H         182.1158   81.2025  140.2385 H        32        0    0.0000
    484 H         180.3872   81.1147  139.9243 H        32        0    0.0000
    485 C         181.5295   83.1837  143.5137 C.3      33        0    0.0000
    486 C         181.0455   82.5400  142.2152 C.3      33        0    0.0000
    487 C         180.4465   81.1751  142.5963 C.3      33        0    0.0000
    488 C         180.9665   80.0403  141.7039 C.3      33        0    0.0000
    489 C         180.7810   81.0033  144.0860 C.3      33        0    0.0000
    490 C         180.8275   82.4305  144.6465 C.3      33        0    0.0000
    491 C         179.4446   83.0305  144.9596 C.3      33        0    0.0000
    492 H         182.6137   83.0369  143.5998 H        33        0    0.0000
    493 H         181.3471   84.2628  143.5310 H        33        0    0.0000
    494 H         181.8702   82.4587  141.4987 H        33        0    0.0000
    495 H         180.2735   83.1628  141.7483 H        33        0    0.0000
    496 H         179.3548   81.2440  142.4879 H        33        0    0.0000
    497 H         180.2489   79.2118  141.6844 H        33        0    0.0000
    498 H         181.8967   79.6434  142.1281 H        33        0    0.0000
    499 H         180.0556   80.3639  144.5984 H        33        0    0.0000
    500 H         181.7689   80.5392  144.2035 H        33        0    0.0000
    501 H         181.4482   82.4614  145.5511 H        33        0    0.0000
    502 H         178.7470   82.2611  145.3074 H        33        0    0.0000
    503 H         179.0164   83.4490  144.0406 H        33        0    0.0000
    504 C         176.4708   85.7871  147.5228 C.3      34        0    0.0000
    505 C         177.4615   84.6381  147.4144 C.3      34        0    0.0000
    506 C         178.2223   84.9619  146.1270 C.3      34        0    0.0000
    507 C         179.5278   84.1707  146.0135 C.3      34        0    0.0000
    508 C         178.3984   86.4905  146.1805 C.3      34        0    0.0000
    509 C         177.3018   87.0152  147.1300 C.3      34        0    0.0000
    510 C         176.4961   88.2116  146.6077 C.3      34        0    0.0000
    511 H         176.0594   85.8779  148.5329 H        34        0    0.0000
    512 H         175.6355   85.6163  146.8351 H        34        0    0.0000
    513 H         178.1339   84.6334  148.2810 H        34        0    0.0000
    514 H         176.9591   83.6672  147.3652 H        34        0    0.0000
    515 H         177.5724   84.7211  145.2731 H        34        0    0.0000
    516 H         180.3555   84.8417  145.7551 H        34        0    0.0000
    517 H         179.7713   83.7318  146.9884 H        34        0    0.0000
    518 H         179.3811   86.7628  146.5853 H        34        0    0.0000
    519 H         178.3391   86.9219  145.1757 H        34        0    0.0000
    520 H         177.8141   87.3608  148.0402 H        34        0    0.0000
    521 H         177.1561   89.0843  146.5368 H        34        0    0.0000
    522 H         175.7193   88.4639  147.3393 H        34        0    0.0000
    523 C         173.8801   91.0223  144.1348 C.3      35        0    0.0000
    524 C         174.9033   90.3465  145.0515 C.3      35        0    0.0000
    525 C         174.5763   88.8475  145.0306 C.3      35        0    0.0000
    526 C         175.8211   87.9775  145.2257 C.3      35        0    0.0000
    527 C         173.8734   88.6632  143.6816 C.3      35        0    0.0000
    528 C         172.9775   89.9035  143.5983 C.3      35        0    0.0000
    529 C         172.4409   90.2101  142.1974 C.3      35        0    0.0000
    530 H         173.2947   91.7745  144.6744 H        35        0    0.0000
    531 H         174.4039   91.5398  143.3222 H        35        0    0.0000
    532 H         174.8527   90.7453  146.0704 H        35        0    0.0000
    533 H         175.9149   90.5418  144.6760 H        35        0    0.0000
    534 H         173.8531   88.6434  145.8337 H        35        0    0.0000
    535 H         176.5496   88.2063  144.4386 H        35        0    0.0000
    536 H         175.5643   86.9170  145.1200 H        35        0    0.0000
    537 H         173.2926   87.7360  143.6464 H        35        0    0.0000
    538 H         174.5996   88.6471  142.8592 H        35        0    0.0000
    539 H         172.1373   89.7767  144.2965 H        35        0    0.0000
    540 H         172.1450   89.2832  141.6923 H        35        0    0.0000
    541 H         173.2394   90.6579  141.5939 H        35        0    0.0000
    542 C         170.7810   92.2282  145.8550 C.3      36        0    0.0000
    543 C         171.3409   91.2687  144.8143 C.3      36        0    0.0000
    544 C         171.1429   92.0344  143.5020 C.3      36        0    0.0000
    545 C         171.2359   91.1898  142.2275 C.3      36        0    0.0000
    546 C         169.8293   92.8195  143.6845 C.3      36        0    0.0000
    547 C         169.5023   92.7468  145.1889 C.3      36        0    0.0000
    548 C         168.9138   94.0225  145.7993 C.3      36        0    0.0000
    549 H         170.5750   91.7260  146.8053 H        36        0    0.0000
    550 H         171.5021   93.0311  146.0439 H        36        0    0.0000
    551 H         172.3939   91.0343  144.9988 H        36        0    0.0000
    552 H         170.7751   90.3307  144.8335 H        36        0    0.0000
    553 H         171.9506   92.7795  143.4426 H        36        0    0.0000
    554 H         170.3103   90.6135  142.1117 H        36        0    0.0000
    555 H         171.3024   91.8567  141.3597 H        36        0    0.0000
    556 H         168.9982   92.3986  143.1085 H        36        0    0.0000
    557 H         169.9638   93.8462  143.3273 H        36        0    0.0000
    558 H         168.7397   91.9625  145.3088 H        36        0    0.0000
    559 H         168.1764   93.7470  146.5625 H        36        0    0.0000
    560 H         169.7096   94.5733  146.3145 H        36        0    0.0000
    561 C         167.2634   92.4876  142.1873 C.3      37        0    0.0000
    562 C         168.2659   92.8632  143.2812 C.3      37        0    0.0000
    563 C         168.2924   94.4009  143.3449 C.3      37        0    0.0000
    564 C         168.2352   94.9722  144.7670 C.3      37        0    0.0000
    565 C         167.0979   94.8391  142.4915 C.3      37        0    0.0000
    566 C         166.9942   93.7724  141.3962 C.3      37        0    0.0000
    567 C         168.0024   94.0027  140.2545 C.3      37        0    0.0000
    568 H         167.6236   91.6576  141.5722 H        37        0    0.0000
    569 H         166.3311   92.1553  142.6616 H        37        0    0.0000
    570 H         167.9737   92.4029  144.2315 H        37        0    0.0000
    571 H         169.2636   92.4839  143.0309 H        37        0    0.0000
    572 H         169.2107   94.7507  142.8518 H        37        0    0.0000
    573 H         168.7522   95.9388  144.7911 H        37        0    0.0000
    574 H         167.1965   95.1600  145.0627 H        37        0    0.0000
    575 H         167.2292   95.8492  142.0902 H        37        0    0.0000
    576 H         166.1787   94.8377  143.0917 H        37        0    0.0000
    577 H         165.9758   93.7623  140.9876 H        37        0    0.0000
    578 H         168.4535   93.0590  139.9284 H        37        0    0.0000
    579 H         168.8198   94.6392  140.6136 H        37        0    0.0000
    580 C         163.8713   93.2964  138.4668 C.3      38        0    0.0000
    581 C         165.0825   93.4813  139.3681 C.3      38        0    0.0000
    582 C         166.1869   93.9213  138.3987 C.3      38        0    0.0000
    583 C         167.3416   94.7063  139.0337 C.3      38        0    0.0000
    584 C         165.4630   94.6324  137.2368 C.3      38        0    0.0000
    585 C         163.9566   94.5005  137.5266 C.3      38        0    0.0000
    586 C         163.0787   94.3265  136.2849 C.3      38        0    0.0000
    587 H         163.9516   92.3540  137.9114 H        38        0    0.0000
    588 H         162.9363   93.2806  139.0352 H        38        0    0.0000
    589 H         164.8650   94.2464  140.1212 H        38        0    0.0000
    590 H         165.3446   92.5583  139.8947 H        38        0    0.0000
    591 H         166.6292   93.0055  137.9789 H        38        0    0.0000
    592 H         168.1109   94.8851  138.2730 H        38        0    0.0000
    593 H         166.9754   95.6911  139.3474 H        38        0    0.0000
    594 H         165.7305   94.1388  136.2942 H        38        0    0.0000
    595 H         165.7462   95.6853  137.1345 H        38        0    0.0000
    596 H         163.6344   95.3939  138.0812 H        38        0    0.0000
    597 H         163.0383   93.2698  135.9952 H        38        0    0.0000
    598 H         162.0513   94.6269  136.5226 H        38        0    0.0000
    599 C         166.1622   93.2778  133.0312 C.3      39        0    0.0000
    600 C         165.5296   93.6187  134.3732 C.3      39        0    0.0000
    601 C         164.2443   94.3486  133.9696 C.3      39        0    0.0000
    602 C         163.5785   95.1695  135.0782 C.3      39        0    0.0000
    603 C         164.6055   95.1290  132.6906 C.3      39        0    0.0000
    604 C         165.9603   94.5630  132.2219 C.3      39        0    0.0000
    605 C         166.1268   94.4185  130.7061 C.3      39        0    0.0000
    606 H         167.2204   93.0175  133.1324 H        39        0    0.0000
    607 H         165.6429   92.4231  132.5838 H        39        0    0.0000
    608 H         165.3246   92.7231  134.9678 H        39        0    0.0000
    609 H         166.2054   94.2615  134.9482 H        39        0    0.0000
    610 H         163.5184   93.5761  133.6739 H        39        0    0.0000
    611 H         164.2890   95.9205  135.4434 H        39        0    0.0000
    612 H         162.7286   95.7188  134.6562 H        39        0    0.0000
    613 H         164.6986   96.2069  132.8616 H        39        0    0.0000
    614 H         163.8109   95.0018  131.9474 H        39        0    0.0000
    615 H         166.7317   95.2739  132.5546 H        39        0    0.0000
    616 H         167.1393   94.0574  130.4900 H        39        0    0.0000
    617 H         165.4341   93.6510  130.3410 H        39        0    0.0000
    618 C         168.7438   96.4320  127.6483 C.3      40        0    0.0000
    619 C         168.2044   95.5706  128.7928 C.3      40        0    0.0000
    620 C         167.1987   96.4436  129.5646 C.3      40        0    0.0000
    621 C         165.8830   95.7337  129.9068 C.3      40        0    0.0000
    622 C         166.9855   97.6659  128.6658 C.3      40        0    0.0000
    623 C         168.3352   97.8735  127.9704 C.3      40        0    0.0000
    624 C         169.3519   98.6049  128.8674 C.3      40        0    0.0000
    625 H         169.8210   96.2985  127.5108 H        40        0    0.0000
    626 H         168.2594   96.1211  126.7137 H        40        0    0.0000
    627 H         167.7543   94.6552  128.3930 H        40        0    0.0000
    628 H         169.0205   95.2662  129.4585 H        40        0    0.0000
    629 H         167.6785   96.7828  130.4938 H        40        0    0.0000
    630 H         165.2585   96.3995  130.5143 H        40        0    0.0000
    631 H         165.3180   95.5136  128.9938 H        40        0    0.0000
    632 H         166.6616   98.5426  129.2359 H        40        0    0.0000
    633 H         166.2145   97.4566  127.9130 H        40        0    0.0000
    634 H         168.1882   98.4441  127.0446 H        40        0    0.0000
    635 H         170.2437   98.8940  128.3004 H        40        0    0.0000
    636 H         169.6860   97.9297  129.6642 H        40        0    0.0000
    637 C         165.7073  101.9723  129.0884 C.3      41        0    0.0000
    638 C         166.4852  101.0388  130.0192 C.3      41        0    0.0000
    639 C         167.2697  100.0703  129.1160 C.3      41        0    0.0000
    640 C         168.7321   99.8684  129.5316 C.3      41        0    0.0000
    641 C         167.1396  100.6679  127.7113 C.3      41        0    0.0000
    642 C         165.7562  101.3271  127.6992 C.3      41        0    0.0000
    643 C         164.6230  100.3106  127.4635 C.3      41        0    0.0000
    644 H         164.6928  102.1587  129.4533 H        41        0    0.0000
    645 H         166.2194  102.9424  129.0527 H        41        0    0.0000
    646 H         167.1338  101.6240  130.6805 H        41        0    0.0000
    647 H         165.7951  100.4753  130.6581 H        41        0    0.0000
    648 H         166.7549   99.0989  129.1227 H        41        0    0.0000
    649 H         169.3195  100.7438  129.2300 H        41        0    0.0000
    650 H         168.8132   99.7918  130.6221 H        41        0    0.0000
    651 H         167.2560   99.9093  126.9305 H        41        0    0.0000
    652 H         167.9105  101.4322  127.5484 H        41        0    0.0000
    653 H         165.7231  102.0984  126.9192 H        41        0    0.0000
    654 H         164.4322   99.7150  128.3631 H        41        0    0.0000
    655 H         164.9211   99.6097  126.6747 H        41        0    0.0000
    656 C         161.7327  103.6763  128.9888 C.3      42        0    0.0000
    657 C         162.8346  102.6188  128.9422 C.3      42        0    0.0000
    658 C         163.2449  102.4743  127.4664 C.3      42        0    0.0000
    659 C         163.3048  101.0079  127.0186 C.3      42        0    0.0000
    660 C         162.2258  103.3243  126.6921 C.3      42        0    0.0000
    661 C         161.8228  104.4397  127.6649 C.3      42        0    0.0000
    662 C         162.8295  105.6019  127.7439 C.3      42        0    0.0000
    663 H         160.7596  103.1723  129.0496 H        42        0    0.0000
    664 H         161.8182  104.3212  129.8690 H        42        0    0.0000
    665 H         162.4810  101.6792  129.3805 H        42        0    0.0000
    666 H         163.6982  102.9451  129.5336 H        42        0    0.0000
    667 H         164.2401  102.9258  127.3476 H        42        0    0.0000
    668 H         163.1994  100.9376  125.9298 H        42        0    0.0000
    669 H         162.4597  100.4615  127.4544 H        42        0    0.0000
    670 H         162.6374  103.7026  125.7513 H        42        0    0.0000
    671 H         161.3394  102.7254  126.4456 H        42        0    0.0000
    672 H         160.8343  104.8351  127.3984 H        42        0    0.0000
    673 H         163.7968  105.2643  128.1312 H        42        0    0.0000
    674 H         162.4561  106.3555  128.4478 H        42        0    0.0000
    675 C         163.0342  106.2917  126.3654 C.3      43        0    0.0000
    676 C         163.8708  105.4697  125.3746 C.3      43        0    0.0000
    677 H         162.0363  106.4350  125.9315 H        43        0    0.0000
    678 H         163.4586  107.2918  126.5122 H        43        0    0.0000
    679 H         164.3076  106.1069  124.5967 H        43        0    0.0000
    680 H         164.7105  105.0256  125.9244 H        43        0    0.0000
    681 C         159.8439  106.0734  123.8605 C.3      44        0    0.0000
    682 C         161.2903  106.1112  124.3335 C.3      44        0    0.0000
    683 C         161.7951  104.7029  124.0026 C.3      44        0    0.0000
    684 C         163.0881  104.2850  124.7094 C.3      44        0    0.0000
    685 C         160.5852  103.7750  124.2274 C.3      44        0    0.0000
    686 C         159.3608  104.7033  124.3477 C.3      44        0    0.0000
    687 C         158.0751  104.1887  123.6933 C.3      44        0    0.0000
    688 H         159.2537  106.8920  124.2839 H        44        0    0.0000
    689 H         159.8093  106.1582  122.7688 H        44        0    0.0000
    690 H         161.8681  106.8863  123.8205 H        44        0    0.0000
    691 H         161.3226  106.3186  125.4088 H        44        0    0.0000
    692 H         162.0096  104.6864  122.9234 H        44        0    0.0000
    693 H         162.8507  103.5426  125.4806 H        44        0    0.0000
    694 H         163.7473  103.7890  123.9870 H        44        0    0.0000
    695 H         160.6760  103.1695  125.1357 H        44        0    0.0000
    696 H         160.5046  103.0700  123.3931 H        44        0    0.0000
    697 H         159.1455  104.8047  125.4222 H        44        0    0.0000
    698 H         158.2609  103.1931  123.2733 H        44        0    0.0000
    699 H         157.3047  104.0668  124.4639 H        44        0    0.0000
    700 C         153.8556  105.1308  123.4784 C.3      45        0    0.0000
    701 C         155.2692  104.5644  123.6351 C.3      45        0    0.0000
    702 C         156.0159  104.9055  122.3389 C.3      45        0    0.0000
    703 C         157.5160  105.1104  122.5681 C.3      45        0    0.0000
    704 C         155.2736  106.1435  121.8248 C.3      45        0    0.0000
    705 C         153.8070  105.7905  122.0940 C.3      45        0    0.0000
    706 C         152.8457  106.9816  122.0502 C.3      45        0    0.0000
    707 H         153.0976  104.3450  123.5657 H        45        0    0.0000
    708 H         153.6631  105.8579  124.2764 H        45        0    0.0000
    709 H         155.2503  103.4824  123.8044 H        45        0    0.0000
    710 H         155.7508  105.0214  124.5079 H        45        0    0.0000
    711 H         155.8599  104.0821  121.6268 H        45        0    0.0000
    712 H         157.7000  106.1543  122.8488 H        45        0    0.0000
    713 H         158.0706  104.9303  121.6397 H        45        0    0.0000
    714 H         155.4629  106.3216  120.7615 H        45        0    0.0000
    715 H         155.5709  107.0399  122.3833 H        45        0    0.0000
    716 H         153.4891  105.0319  121.3639 H        45        0    0.0000
    717 H         152.4587  107.1950  123.0535 H        45        0    0.0000
    718 H         151.9813  106.7262  121.4256 H        45        0    0.0000
    719 C         151.5506  111.1642  120.0360 C.3      46        0    0.0000
    720 C         152.8780  110.4511  120.2437 C.3      46        0    0.0000
    721 C         152.5865  109.4787  121.3937 C.3      46        0    0.0000
    722 C         153.5134  108.2589  121.4711 C.3      46        0    0.0000
    723 C         151.0801  109.1604  121.2991 C.3      46        0    0.0000
    724 C         150.5303  110.0300  120.1536 C.3      46        0    0.0000
    725 C         149.1086  110.5532  120.3728 C.3      46        0    0.0000
    726 H         151.3975  111.9172  120.8187 H        46        0    0.0000
    727 H         151.5023  111.6652  119.0643 H        46        0    0.0000
    728 H         153.1612  109.9293  119.3232 H        46        0    0.0000
    729 H         153.6825  111.1500  120.4932 H        46        0    0.0000
    730 H         152.7309  110.0370  122.3307 H        46        0    0.0000
    731 H         153.8893  108.0334  120.4659 H        46        0    0.0000
    732 H         154.3871  108.5112  122.0837 H        46        0    0.0000
    733 H         150.6015  109.4126  122.2536 H        46        0    0.0000
    734 H         150.8758  108.1009  121.1124 H        46        0    0.0000
    735 H         150.5646  109.4386  119.2271 H        46        0    0.0000
    736 H         148.4035  110.0130  119.7300 H        46        0    0.0000
    737 H         148.8054  110.3557  121.4079 H        46        0    0.0000
    738 C         147.0154  111.9771  116.8507 C.3      47        0    0.0000
    739 C         147.5866  111.2730  118.0736 C.3      47        0    0.0000
    740 C         148.0153  112.4393  118.9702 C.3      47        0    0.0000
    741 C         148.9856  112.0785  120.0991 C.3      47        0    0.0000
    742 C         148.4996  113.5376  118.0034 C.3      47        0    0.0000
    743 C         148.0237  113.1039  116.6031 C.3      47        0    0.0000
    744 C         147.5356  114.2344  115.6921 C.3      47        0    0.0000
    745 H         146.9328  111.3032  115.9924 H        47        0    0.0000
    746 H         146.0152  112.3617  117.0788 H        47        0    0.0000
    747 H         146.8450  110.6316  118.5597 H        47        0    0.0000
    748 H         148.4357  110.6472  117.7773 H        47        0    0.0000
    749 H         147.1035  112.8226  119.4525 H        47        0    0.0000
    750 H         149.9792  112.4742  119.8573 H        47        0    0.0000
    751 H         148.6639  112.5769  121.0212 H        47        0    0.0000
    752 H         149.5889  113.6522  118.0005 H        47        0    0.0000
    753 H         148.0881  114.5046  118.3123 H        47        0    0.0000
    754 H         148.8916  112.6506  116.1008 H        47        0    0.0000
    755 H         148.1662  115.1176  115.8483 H        47        0    0.0000
    756 H         147.6678  113.9340  114.6459 H        47        0    0.0000
    757 C         144.4038  114.1857  112.5289 C.3      48        0    0.0000
    758 C         145.6379  114.0898  113.4129 C.3      48        0    0.0000
    759 C         145.2800  114.9604  114.6240 C.3      48        0    0.0000
    760 C         146.0465  114.6370  115.9128 C.3      48        0    0.0000
    761 C         143.7425  114.9060  114.7370 C.3      48        0    0.0000
    762 C         143.2541  114.0800  113.5329 C.3      48        0    0.0000
    763 C         141.9227  114.5432  112.9366 C.3      48        0    0.0000
    764 H         144.3853  115.1497  112.0060 H        48        0    0.0000
    765 H         144.3737  113.3888  111.7796 H        48        0    0.0000
    766 H         145.8083  113.0443  113.6915 H        48        0    0.0000
    767 H         146.5359  114.4503  112.9013 H        48        0    0.0000
    768 H         145.5386  115.9972  114.3619 H        48        0    0.0000
    769 H         146.0137  115.5105  116.5749 H        48        0    0.0000
    770 H         145.5337  113.8239  116.4401 H        48        0    0.0000
    771 H         143.3459  115.9284  114.7039 H        48        0    0.0000
    772 H         143.3962  114.4620  115.6763 H        48        0    0.0000
    773 H         143.1687  113.0301  113.8491 H        48        0    0.0000
    774 H         141.9739  114.5303  111.8414 H        48        0    0.0000
    775 H         141.1328  113.8386  113.2229 H        48        0    0.0000
    776 C         139.3046  115.9430  115.8377 C.3      49        0    0.0000
    777 C         139.3706  115.1787  114.5126 C.3      49        0    0.0000
    778 C         139.9893  116.1349  113.4871 C.3      49        0    0.0000
    779 C         141.5186  115.9665  113.4135 C.3      49        0    0.0000
    780 C         139.5249  117.5031  114.0026 C.3      49        0    0.0000
    781 C         139.6668  117.4041  115.5235 C.3      49        0    0.0000
    782 C         138.8109  118.4424  116.2577 C.3      49        0    0.0000
    783 H         138.3034  115.8441  116.2723 H        49        0    0.0000
    784 H         140.0146  115.5242  116.5600 H        49        0    0.0000
    785 H         138.3499  114.9239  114.2004 H        49        0    0.0000
    786 H         139.9197  114.2368  114.6109 H        49        0    0.0000
    787 H         139.5619  115.9430  112.4945 H        49        0    0.0000
    788 H         141.9474  116.1299  114.4097 H        49        0    0.0000
    789 H         141.9694  116.7148  112.7530 H        49        0    0.0000
    790 H         138.4732  117.6569  113.7278 H        49        0    0.0000
    791 H         140.0961  118.3419  113.5937 H        49        0    0.0000
    792 H         140.7226  117.5626  115.7843 H        49        0    0.0000
    793 H         139.3609  119.3849  116.3622 H        49        0    0.0000
    794 H         138.5960  118.0855  117.2719 H        49        0    0.0000
    795 C         137.4640  118.7047  115.5247 C.3      50        0    0.0000
    796 C         136.3448  119.2193  116.4411 C.3      50        0    0.0000
    797 H         137.6611  119.4714  114.7644 H        50        0    0.0000
    798 H         137.1547  117.8014  114.9859 H        50        0    0.0000
    799 H         136.5437  118.9729  117.4907 H        50        0    0.0000
    800 H         136.3265  120.3147  116.3741 H        50        0    0.0000
    801 C         132.6005  121.5638  116.9915 C.3      51        0    0.0000
    802 C         134.0053  120.9877  116.9012 C.3      51        0    0.0000
    803 C         133.7649  119.4849  116.7092 C.3      51        0    0.0000
    804 C         134.9137  118.7176  116.0426 C.3      51        0    0.0000
    805 C         132.3959  119.3678  116.0079 C.3      51        0    0.0000
    806 C         131.8469  120.8021  115.8993 C.3      51        0    0.0000
    807 C         130.3288  120.9201  116.0559 C.3      51        0    0.0000
    808 H         132.1713  121.3646  117.9811 H        51        0    0.0000
    809 H         132.5897  122.6452  116.8246 H        51        0    0.0000
    810 H         134.5300  121.4343  116.0497 H        51        0    0.0000
    811 H         134.5911  121.1962  117.8020 H        51        0    0.0000
    812 H         133.6420  119.0487  117.7117 H        51        0    0.0000
    813 H         134.8296  117.6554  116.3017 H        51        0    0.0000
    814 H         134.8049  118.7846  114.9536 H        51        0    0.0000
    815 H         131.7366  118.7355  116.6156 H        51        0    0.0000
    816 H         132.4584  118.9019  115.0189 H        51        0    0.0000
    817 H         132.1477  121.2116  114.9239 H        51        0    0.0000
    818 H         129.8508  119.9560  115.8456 H        51        0    0.0000
    819 H         130.0903  121.1690  117.0969 H        51        0    0.0000
    820 C         128.3150  124.5170  116.7175 C.3      52        0    0.0000
    821 C         128.2284  123.0031  116.9294 C.3      52        0    0.0000
    822 C         128.2742  122.3637  115.5373 C.3      52        0    0.0000
    823 C         129.7165  122.0082  115.1298 C.3      52        0    0.0000
    824 C         127.6157  123.4417  114.6669 C.3      52        0    0.0000
    825 C         128.1772  124.7600  115.2053 C.3      52        0    0.0000
    826 C         127.3020  125.9620  114.8326 C.3      52        0    0.0000
    827 H         127.5292  125.0169  117.2951 H        52        0    0.0000
    828 H         129.2763  124.9021  117.0764 H        52        0    0.0000
    829 H         127.2679  122.7671  117.4048 H        52        0    0.0000
    830 H         129.0147  122.6383  117.5981 H        52        0    0.0000
    831 H         127.6660  121.4501  115.5275 H        52        0    0.0000
    832 H         130.3414  122.9070  115.1955 H        52        0    0.0000
    833 H         129.7635  121.6706  114.0890 H        52        0    0.0000
    834 H         126.5273  123.4065  114.8067 H        52        0    0.0000
    835 H         127.8124  123.3214  113.5974 H        52        0    0.0000
    836 H         129.1822  124.9061  114.7853 H        52        0    0.0000
    837 H         127.9094  126.7454  114.3646 H        52        0    0.0000
    838 H         126.8712  126.3950  115.7431 H        52        0    0.0000
    839 C         126.1440  125.5597  113.8746 C.3      53        0    0.0000
    840 C         125.1952  126.7146  113.5233 C.3      53        0    0.0000
    841 H         125.5615  124.7851  114.3896 H        53        0    0.0000
    842 H         126.5563  125.0936  112.9720 H        53        0    0.0000
    843 H         124.7818  127.1122  114.4591 H        53        0    0.0000
    844 H         125.7328  127.5403  113.0425 H        53        0    0.0000
    845 C         121.0130  128.2177  111.3156 C.3      54        0    0.0000
    846 C         122.0737  127.1361  111.1798 C.3      54        0    0.0000
    847 C         123.0417  127.4604  112.3195 C.3      54        0    0.0000
    848 C         123.9756  126.2892  112.6343 C.3      54        0    0.0000
    849 C         122.1168  127.8760  113.4782 C.3      54        0    0.0000
    850 C         120.7858  128.3091  112.8298 C.3      54        0    0.0000
    851 C         120.2147  129.6430  113.3274 C.3      54        0    0.0000
    852 H         120.0946  127.9590  110.7792 H        54        0    0.0000
    853 H         121.3919  129.1565  110.8972 H        54        0    0.0000
    854 H         121.6240  126.1445  111.3125 H        54        0    0.0000
    855 H         122.5628  127.1624  110.2013 H        54        0    0.0000
    856 H         123.6383  128.3363  112.0257 H        54        0    0.0000
    857 H         123.4219  125.4892  113.1398 H        54        0    0.0000
    858 H         124.3544  125.8657  111.6965 H        54        0    0.0000
    859 H         121.9265  127.0341  114.1555 H        54        0    0.0000
    860 H         122.5799  128.6667  114.0778 H        54        0    0.0000
    861 H         120.0448  127.5387  113.0904 H        54        0    0.0000
    862 H         119.5126  130.0328  112.5808 H        54        0    0.0000
    863 H         121.0297  130.3727  113.4032 H        54        0    0.0000
    864 C         116.8738  132.2830  114.9864 C.3      55        0    0.0000
    865 C         117.7935  131.4301  114.1260 C.3      55        0    0.0000
    866 C         118.7987  130.8582  115.1337 C.3      55        0    0.0000
    867 C         119.4919  129.5595  114.7025 C.3      55        0    0.0000
    868 C         118.0483  130.7924  116.4799 C.3      55        0    0.0000
    869 C         116.6623  131.4138  116.2278 C.3      55        0    0.0000
    870 C         116.0963  132.2144  117.4032 C.3      55        0    0.0000
    871 H         117.3648  133.2292  115.2446 H        55        0    0.0000
    872 H         115.9330  132.5129  114.4770 H        55        0    0.0000
    873 H         117.2100  130.6449  113.6335 H        55        0    0.0000
    874 H         118.2865  132.0195  113.3465 H        55        0    0.0000
    875 H         119.5945  131.6082  115.2546 H        55        0    0.0000
    876 H         120.2247  129.2764  115.4675 H        55        0    0.0000
    877 H         118.7500  128.7529  114.6647 H        55        0    0.0000
    878 H         118.6092  131.3644  117.2294 H        55        0    0.0000
    879 H         117.9501  129.7729  116.8676 H        55        0    0.0000
    880 H         115.9657  130.6040  115.9664 H        55        0    0.0000
    881 H         115.7539  133.1982  117.0609 H        55        0    0.0000
    882 H         115.2164  131.6969  117.8037 H        55        0    0.0000
    883 C         117.1294  132.4021  118.5495 C.3      56        0    0.0000
    884 C         116.6584  133.3455  119.6656 C.3      56        0    0.0000
    885 H         118.0306  132.8344  118.0961 H        56        0    0.0000
    886 H         117.4187  131.4234  118.9500 H        56        0    0.0000
    887 H         115.8404  132.8520  120.2058 H        56        0    0.0000
    888 H         117.4541  133.5254  120.3980 H        56        0    0.0000
    889 C         114.9340  137.1614  121.6842 C.3      57        0    0.0000
    890 C         115.5879  135.8006  121.4320 C.3      57        0    0.0000
    891 C         115.0325  135.2871  120.0915 C.3      57        0    0.0000
    892 C         116.0974  134.7150  119.1477 C.3      57        0    0.0000
    893 C         114.3084  136.4958  119.4899 C.3      57        0    0.0000
    894 C         113.7629  137.2606  120.7006 C.3      57        0    0.0000
    895 C         112.4603  136.6451  121.2461 C.3      57        0    0.0000
    896 H         114.6427  137.2855  122.7316 H        57        0    0.0000
    897 H         115.6621  137.9506  121.4573 H        57        0    0.0000
    898 H         116.6786  135.9037  121.4293 H        57        0    0.0000
    899 H         115.3309  135.0993  122.2344 H        57        0    0.0000
    900 H         114.2831  134.5111  120.3032 H        57        0    0.0000
    901 H         115.6570  134.5580  118.1558 H        57        0    0.0000
    902 H         116.9197  135.4286  119.0208 H        57        0    0.0000
    903 H         113.5239  136.1961  118.7875 H        57        0    0.0000
    904 H         115.0166  137.1325  118.9439 H        57        0    0.0000
    905 H         113.5844  138.3076  120.4246 H        57        0    0.0000
    906 H         112.0011  137.2943  121.9998 H        57        0    0.0000
    907 H         112.6869  135.6933  121.7410 H        57        0    0.0000
    908 C         111.4328  136.3677  120.1106 C.3      58        0    0.0000
    909 C         110.1341  137.1776  120.2329 C.3      58        0    0.0000
    910 H         111.9201  136.6461  119.1674 H        58        0    0.0000
    911 H         111.2282  135.2923  120.0521 H        58        0    0.0000
    912 H         109.2648  136.5867  119.9214 H        58        0    0.0000
    913 H         109.9840  137.4223  121.2922 H        58        0    0.0000
    914 C         107.6373  140.4162  120.4059 C.3      59        0    0.0000
    915 C         107.7026  138.9548  119.9540 C.3      59        0    0.0000
    916 C         108.7755  138.8826  118.8620 C.3      59        0    0.0000
    917 C         110.1556  138.5376  119.4529 C.3      59        0    0.0000
    918 C         108.6856  140.2777  118.2306 C.3      59        0    0.0000
    919 C         108.5003  141.2222  119.4209 C.3      59        0    0.0000
    920 C         107.9002  142.5707  119.0073 C.3      59        0    0.0000
    921 H         106.5944  140.7526  120.4209 H        59        0    0.0000
    922 H         108.0271  140.5223  121.4248 H        59        0    0.0000
    923 H         106.7317  138.6733  119.5268 H        59        0    0.0000
    924 H         107.8926  138.2760  120.7916 H        59        0    0.0000
    925 H         108.5034  138.1179  118.1232 H        59        0    0.0000
    926 H         110.4572  139.3290  120.1497 H        59        0    0.0000
    927 H         110.9234  138.4992  118.6728 H        59        0    0.0000
    928 H         107.8097  140.3217  117.5701 H        59        0    0.0000
    929 H         109.5612  140.5443  117.6312 H        59        0    0.0000
    930 H         109.4826  141.3950  119.8826 H        59        0    0.0000
    931 H         108.6510  143.1798  118.4906 H        59        0    0.0000
    932 H         107.6017  143.1267  119.9039 H        59        0    0.0000
    933 C         104.5882  145.5685  118.1177 C.3      60        0    0.0000
    934 C         105.8985  144.8520  118.4067 C.3      60        0    0.0000
    935 C         105.5081  143.3687  118.3865 C.3      60        0    0.0000
    936 C         106.6548  142.3934  118.0919 C.3      60        0    0.0000
    937 C         104.2949  143.2696  117.4388 C.3      60        0    0.0000
    938 C         103.9658  144.7121  117.0130 C.3      60        0    0.0000
    939 C         102.4737  145.0010  116.8304 C.3      60        0    0.0000
    940 H         103.9558  145.5794  119.0138 H        60        0    0.0000
    941 H         104.7486  146.6029  117.7988 H        60        0    0.0000
    942 H         106.6292  145.0975  117.6285 H        60        0    0.0000
    943 H         106.3230  145.1500  119.3705 H        60        0    0.0000
    944 H         105.1407  143.1196  119.3932 H        60        0    0.0000
    945 H         106.2846  141.3667  118.1982 H        60        0    0.0000
    946 H         106.9639  142.5092  117.0463 H        60        0    0.0000
    947 H         103.4559  142.8142  117.9796 H        60        0    0.0000
    948 H         104.4849  142.6415  116.5621 H        60        0    0.0000
    949 H         104.4976  144.9223  116.0736 H        60        0    0.0000
    950 H         102.3332  145.9809  116.3590 H        60        0    0.0000
    951 H         102.0418  144.2590  116.1483 H        60        0    0.0000
    952 C          98.5827  146.8258  119.2189 C.3      61        0    0.0000
    953 C          99.5618  145.6605  119.3833 C.3      61        0    0.0000
    954 C         100.2605  145.4906  118.0279 C.3      61        0    0.0000
    955 C         101.6900  144.9612  118.1722 C.3      61        0    0.0000
    956 C         100.1565  146.8868  117.4051 C.3      61        0    0.0000
    957 C          98.7305  147.3115  117.7710 C.3      61        0    0.0000
    958 C          98.4551  148.8111  117.6291 C.3      61        0    0.0000
    959 H          97.5528  146.5155  119.4259 H        61        0    0.0000
    960 H          98.8336  147.6173  119.9352 H        61        0    0.0000
    961 H          99.0439  144.7409  119.6761 H        61        0    0.0000
    962 H         100.2796  145.8962  120.1781 H        61        0    0.0000
    963 H          99.6667  144.7910  117.4216 H        61        0    0.0000
    964 H         101.6578  143.9240  118.5266 H        61        0    0.0000
    965 H         102.2341  145.5372  118.9299 H        61        0    0.0000
    966 H         100.3112  146.8639  116.3217 H        61        0    0.0000
    967 H         100.8947  147.5691  117.8448 H        61        0    0.0000
    968 H          98.0246  146.7453  117.1460 H        61        0    0.0000
    969 H          99.1849  149.2693  116.9514 H        61        0    0.0000
    970 H          98.5814  149.2962  118.6045 H        61        0    0.0000
    971 C          97.0184  149.1021  117.1152 C.3      62        0    0.0000
    972 C          96.9426  150.2376  116.0845 C.3      62        0    0.0000
    973 H          96.6613  148.1820  116.6349 H        62        0    0.0000
    974 H          96.3528  149.2902  117.9657 H        62        0    0.0000
    975 H          96.7889  151.2081  116.5709 H        62        0    0.0000
    976 H          97.9099  150.2947  115.5691 H        62        0    0.0000
    977 C          94.6938  152.9988  113.1697 C.3      63        0    0.0000
    978 C          95.6442  152.4556  114.2356 C.3      63        0    0.0000
    979 C          95.9978  151.0173  113.8194 C.3      63        0    0.0000
    980 C          95.8523  150.0223  114.9784 C.3      63        0    0.0000
    981 C          95.0829  150.7207  112.6212 C.3      63        0    0.0000
    982 C          94.8539  152.0827  111.9537 C.3      63        0    0.0000
    983 C          96.0074  152.5405  111.0425 C.3      63        0    0.0000
    984 H          93.6641  152.9271  113.5428 H        63        0    0.0000
    985 H          94.8842  154.0534  112.9473 H        63        0    0.0000
    986 H          95.1792  152.5109  115.2259 H        63        0    0.0000
    987 H          96.5568  153.0621  114.2740 H        63        0    0.0000
    988 H          97.0410  151.0134  113.4732 H        63        0    0.0000
    989 H          95.9034  148.9929  114.6053 H        63        0    0.0000
    990 H          94.8640  150.1438  115.4379 H        63        0    0.0000
    991 H          95.5194  149.9790  111.9453 H        63        0    0.0000
    992 H          94.1195  150.3238  112.9666 H        63        0    0.0000
    993 H          93.9208  152.0687  111.3761 H        63        0    0.0000
    994 H          96.8761  152.8571  111.6297 H        63        0    0.0000
    995 H          95.6851  153.4148  110.4639 H        63        0    0.0000
    996 C          93.8398  149.1584  111.5649 C.3      64        0    0.0000
    997 C          95.2202  149.8197  111.5925 C.3      64        0    0.0000
    998 C          95.5522  150.1843  110.1396 C.3      64        0    0.0000
    999 C          96.4347  151.4316  110.0396 C.3      64        0    0.0000
   1000 C          94.1708  150.3259  109.4918 C.3      64        0    0.0000
   1001 C          93.3952  149.1509  110.0964 C.3      64        0    0.0000
   1002 C          91.8741  149.2466  109.9484 C.3      64        0    0.0000
   1003 H          93.8751  148.1412  111.9698 H        64        0    0.0000
   1004 H          93.1470  149.7333  112.1910 H        64        0    0.0000
   1005 H          95.9773  149.1483  112.0118 H        64        0    0.0000
   1006 H          95.1858  150.7100  112.2319 H        64        0    0.0000
   1007 H          96.0686  149.3284  109.6810 H        64        0    0.0000
   1008 H          96.3729  151.8382  109.0231 H        64        0    0.0000
   1009 H          97.4851  151.1691  110.2117 H        64        0    0.0000
   1010 H          94.2227  150.2633  108.4002 H        64        0    0.0000
   1011 H          93.7068  151.2831  109.7610 H        64        0    0.0000
   1012 H          93.7536  148.2193  109.6347 H        64        0    0.0000
   1013 H          91.6148  149.8180  109.0494 H        64        0    0.0000
   1014 H          91.4612  149.7966  110.8025 H        64        0    0.0000
   1015 C          91.1973  147.8499  109.8863 C.3      65        0    0.0000
   1016 C          90.0030  147.7776  108.9242 C.3      65        0    0.0000
   1017 H          90.8335  147.6289  110.8979 H        65        0    0.0000
   1018 H          91.9473  147.0862  109.6492 H        65        0    0.0000
   1019 H          89.1810  148.3617  109.3574 H        65        0    0.0000
   1020 H          90.2402  148.2389  107.9584 H        65        0    0.0000
   1021 C          88.0190  144.9925  111.8474 C.3      66        0    0.0000
   1022 C          88.8378  146.1070  111.1915 C.3      66        0    0.0000
   1023 C          89.5379  145.4798  109.9726 C.3      66        0    0.0000
   1024 C          89.4555  146.3260  108.6962 C.3      66        0    0.0000
   1025 C          88.8682  144.1115  109.8097 C.3      66        0    0.0000
   1026 C          88.5219  143.6790  111.2385 C.3      66        0    0.0000
   1027 C          89.7345  143.0910  111.9846 C.3      66        0    0.0000
   1028 H          88.0850  145.0269  112.9390 H        66        0    0.0000
   1029 H          86.9621  145.1293  111.5847 H        66        0    0.0000
   1030 H          88.1839  146.9440  110.9227 H        66        0    0.0000
   1031 H          89.5867  146.4934  111.8927 H        66        0    0.0000
   1032 H          90.5942  145.3145  110.2288 H        66        0    0.0000
   1033 H          90.0490  145.8504  107.9062 H        66        0    0.0000
   1034 H          88.4223  146.3719  108.3332 H        66        0    0.0000
   1035 H          89.5173  143.3961  109.2944 H        66        0    0.0000
   1036 H          87.9458  144.2052  109.2221 H        66        0    0.0000
   1037 H          87.7140  142.9368  111.2126 H        66        0    0.0000
   1038 H          89.4370  142.6639  112.9487 H        66        0    0.0000
   1039 H          90.4530  143.8911  112.1988 H        66        0    0.0000
   1040 C          90.7185  141.5977  107.5022 C.3      67        0    0.0000
   1041 C          90.6317  140.8866  108.8518 C.3      67        0    0.0000
   1042 C          89.7959  141.7912  109.7739 C.3      67        0    0.0000
   1043 C          90.4594  142.0025  111.1411 C.3      67        0    0.0000
   1044 C          89.5906  143.0850  108.9710 C.3      67        0    0.0000
   1045 C          89.6001  142.6431  107.5021 C.3      67        0    0.0000
   1046 C          88.2658  142.0511  107.0129 C.3      67        0    0.0000
   1047 H          91.6884  142.1063  107.4308 H        67        0    0.0000
   1048 H          90.6585  140.8972  106.6633 H        67        0    0.0000
   1049 H          91.6351  140.6883  109.2442 H        67        0    0.0000
   1050 H          90.1331  139.9169  108.7377 H        67        0    0.0000
   1051 H          88.8181  141.3111  109.9209 H        67        0    0.0000
   1052 H          91.5137  142.2747  111.0149 H        67        0    0.0000
   1053 H          90.4408  141.0603  111.7020 H        67        0    0.0000
   1054 H          88.6708  143.6042  109.2575 H        67        0    0.0000
   1055 H          90.4256  143.7766  109.1431 H        67        0    0.0000
   1056 H          89.8809  143.4845  106.8558 H        67        0    0.0000
   1057 H          88.1633  141.0021  107.3111 H        67        0    0.0000
   1058 H          88.2436  142.0685  105.9165 H        67        0    0.0000
   1059 C          87.0431  142.8600  107.5311 C.3      68        0    0.0000
   1060 C          85.7168  142.4897  106.8520 C.3      68        0    0.0000
   1061 H          86.9497  142.6414  108.6026 H        68        0    0.0000
   1062 H          87.2481  143.9337  107.4471 H        68        0    0.0000
   1063 H          85.8866  141.9931  105.8894 H        68        0    0.0000
   1064 H          85.1975  141.7647  107.4918 H        68        0    0.0000
   1065 C          84.1971  142.7092  103.5746 C.3      69        0    0.0000
   1066 C          83.5670  143.8272  104.4097 C.3      69        0    0.0000
   1067 C          83.4900  143.3069  105.8492 C.3      69        0    0.0000
   1068 C          84.7410  143.7014  106.6566 C.3      69        0    0.0000
   1069 C          83.3213  141.7971  105.6364 C.3      69        0    0.0000
   1070 C          84.2687  141.4683  104.4799 C.3      69        0    0.0000
   1071 C          83.9039  140.1523  103.7835 C.3      69        0    0.0000
   1072 H          83.5964  142.5365  102.6744 H        69        0    0.0000
   1073 H          85.2022  142.9948  103.2440 H        69        0    0.0000
   1074 H          82.5519  144.0166  104.0383 H        69        0    0.0000
   1075 H          84.1213  144.7669  104.3193 H        69        0    0.0000
   1076 H          82.6015  143.7175  106.3460 H        69        0    0.0000
   1077 H          84.4330  144.0580  107.6469 H        69        0    0.0000
   1078 H          85.2771  144.5288  106.1796 H        69        0    0.0000
   1079 H          82.2831  141.5844  105.3498 H        69        0    0.0000
   1080 H          83.5435  141.2018  106.5271 H        69        0    0.0000
   1081 H          85.2895  141.3899  104.8795 H        69        0    0.0000
   1082 H          83.9077  139.3259  104.5037 H        69        0    0.0000
   1083 H          84.6623  139.9184  103.0270 H        69        0    0.0000
   1084 C          80.6226  143.2542  104.4039 C.3      70        0    0.0000
   1085 C          81.6556  142.1530  104.5986 C.3      70        0    0.0000
   1086 C          81.8418  141.6044  103.1802 C.3      70        0    0.0000
   1087 C          82.5138  140.2310  103.0894 C.3      70        0    0.0000
   1088 C          80.4536  141.7099  102.5189 C.3      70        0    0.0000
   1089 C          79.6146  142.6114  103.4456 C.3      70        0    0.0000
   1090 C          78.6667  143.5850  102.7385 C.3      70        0    0.0000
   1091 H          80.1590  143.5516  105.3496 H        70        0    0.0000
   1092 H          81.1013  144.1375  103.9670 H        70        0    0.0000
   1093 H          82.5906  142.5389  105.0163 H        70        0    0.0000
   1094 H          81.2634  141.3950  105.2856 H        70        0    0.0000
   1095 H          82.4990  142.3096  102.6492 H        70        0    0.0000
   1096 H          81.8535  139.4790  103.5373 H        70        0    0.0000
   1097 H          82.6313  139.9585  102.0339 H        70        0    0.0000
   1098 H          79.9599  140.7384  102.4082 H        70        0    0.0000
   1099 H          80.5596  142.1193  101.5085 H        70        0    0.0000
   1100 H          78.9824  141.9427  104.0491 H        70        0    0.0000
   1101 H          78.4990  144.4545  103.3851 H        70        0    0.0000
   1102 H          79.1501  143.9582  101.8279 H        70        0    0.0000
   1103 C          77.2862  142.9713  102.3568 C.3      71        0    0.0000
   1104 C          76.1057  143.9385  102.5247 C.3      71        0    0.0000
   1105 H          77.1237  142.1164  103.0257 H        71        0    0.0000
   1106 H          77.3300  142.5684  101.3382 H        71        0    0.0000
   1107 H          76.2817  144.5371  103.4277 H        71        0    0.0000
   1108 H          76.0459  144.6441  101.6877 H        71        0    0.0000
   1109 C          74.7215  143.2271  102.7160 C.3      72        0    0.0000
   1110 C          73.5802  143.8538  101.9022 C.3      72        0    0.0000
   1111 H          74.4666  143.3109  103.7803 H        72        0    0.0000
   1112 H          74.8233  142.1568  102.5015 H        72        0    0.0000
   1113 H          73.3445  144.8310  102.3429 H        72        0    0.0000
   1114 H          73.8859  144.0427  100.8664 H        72        0    0.0000
   1115 C          69.9299  144.5508  104.4632 C.3      73        0    0.0000
   1116 C          71.2280  144.5755  103.6522 C.3      73        0    0.0000
   1117 C          71.5155  143.1215  103.2552 C.3      73        0    0.0000
   1118 C          72.2534  143.0184  101.9175 C.3      73        0    0.0000
   1119 C          70.1262  142.4754  103.2696 C.3      73        0    0.0000
   1120 C          69.4870  143.0830  104.5227 C.3      73        0    0.0000
   1121 C          67.9646  142.9369  104.5973 C.3      73        0    0.0000
   1122 H          70.0788  144.9572  105.4694 H        73        0    0.0000
   1123 H          69.1781  145.1770  103.9680 H        73        0    0.0000
   1124 H          72.0558  144.9947  104.2343 H        73        0    0.0000
   1125 H          71.0953  145.2135  102.7702 H        73        0    0.0000
   1126 H          72.1236  142.6635  104.0490 H        73        0    0.0000
   1127 H          71.6015  143.3845  101.1154 H        73        0    0.0000
   1128 H          72.4793  141.9706  101.6876 H        73        0    0.0000
   1129 H          70.1833  141.3839  103.3279 H        73        0    0.0000
   1130 H          69.5587  142.7438  102.3696 H        73        0    0.0000
   1131 H          69.9464  142.6222  105.4093 H        73        0    0.0000
   1132 H          67.4964  143.9145  104.7614 H        73        0    0.0000
   1133 H          67.7028  142.3122  105.4596 H        73        0    0.0000
   1134 C          63.7240  142.9958  102.5122 C.3      74        0    0.0000
   1135 C          65.1678  142.8201  102.0628 C.3      74        0    0.0000
   1136 C          65.8399  142.2167  103.3005 C.3      74        0    0.0000
   1137 C          67.3700  142.2871  103.3178 C.3      74        0    0.0000
   1138 C          65.1311  142.8669  104.5047 C.3      74        0    0.0000
   1139 C          63.8734  143.5499  103.9329 C.3      74        0    0.0000
   1140 C          62.6191  143.4629  104.8078 C.3      74        0    0.0000
   1141 H          63.1731  143.6802  101.8597 H        74        0    0.0000
   1142 H          63.2120  142.0273  102.4993 H        74        0    0.0000
   1143 H          65.2475  142.1639  101.1905 H        74        0    0.0000
   1144 H          65.5934  143.7937  101.7961 H        74        0    0.0000
   1145 H          65.5761  141.1484  103.3177 H        74        0    0.0000
   1146 H          67.7762  141.2737  103.2161 H        74        0    0.0000
   1147 H          67.7127  142.8530  102.4435 H        74        0    0.0000
   1148 H          65.7528  143.6116  105.0134 H        74        0    0.0000
   1149 H          64.8970  142.0991  105.2500 H        74        0    0.0000
   1150 H          64.1120  144.6197  103.8344 H        74        0    0.0000
   1151 H          62.6660  142.5482  105.4107 H        74        0    0.0000
   1152 H          62.6137  144.3039  105.5112 H        74        0    0.0000
   1153 C          61.2804  143.4686  104.0103 C.3      75        0    0.0000
   1154 C          60.2945  144.5588  104.4541 C.3      75        0    0.0000
   1155 H          61.5386  143.6506  102.9592 H        75        0    0.0000
   1156 H          60.8210  142.4741  104.0525 H        75        0    0.0000
   1157 H          59.2700  144.3194  104.1461 H        75        0    0.0000
   1158 H          60.2930  144.5903  105.5512 H        75        0    0.0000
   1159 C          60.9882  144.3220  100.7104 C.3      76        0    0.0000
   1160 C          60.0326  144.9578  101.7190 C.3      76        0    0.0000
   1161 C          60.8215  146.0677  102.4350 C.3      76        0    0.0000
   1162 C          60.6719  145.9984  103.9605 C.3      76        0    0.0000
   1163 C          62.2665  145.9023  101.9395 C.3      76        0    0.0000
   1164 C          62.1344  145.3200  100.5265 C.3      76        0    0.0000
   1165 C          61.8131  146.3642   99.4416 C.3      76        0    0.0000
   1166 H          61.3847  143.3910  101.1354 H        76        0    0.0000
   1167 H          60.4847  144.0612   99.7743 H        76        0    0.0000
   1168 H          59.6435  144.1993  102.4071 H        76        0    0.0000
   1169 H          59.1708  145.3949  101.2010 H        76        0    0.0000
   1170 H          60.4384  147.0353  102.0814 H        76        0    0.0000
   1171 H          59.9165  146.7155  104.3021 H        76        0    0.0000
   1172 H          61.6192  146.2886  104.4307 H        76        0    0.0000
   1173 H          62.8197  146.8462  101.9653 H        76        0    0.0000
   1174 H          62.8070  145.1872  102.5733 H        76        0    0.0000
   1175 H          63.0512  144.7832  100.2514 H        76        0    0.0000
   1176 H          60.9840  147.0117   99.7463 H        76        0    0.0000
   1177 H          61.4890  145.8487   98.5294 H        76        0    0.0000
   1178 H          62.6803  146.9759   99.1927 H        76        0    0.0000
   1179 H         239.9594  137.9625  107.4541 H         0        0    0.0000
@<TRIPOS>BOND
     1     1     2      1
     2     1     6      1
     3     1     8      1
     4     1     9      1
     5     2     3      1
     6     2    10      1
     7     2    11      1
     8     3     4      1
     9     3     5      1
    10     3    12      1
    11     4    13      1
    12     4    14      1
    13     4  1179      H
    14     5     6      1
    15     5    15      1
    16     5    16      1
    17     6     7      1
    18     6    17      1
    19     7    18      1
    20     7    19      1
    21     7    23      1
    22    20    21      1
    23    20    25      1
    24    20    27      1
    25    20    28      1
    26    21    22      1
    27    21    29      1
    28    21    30      1
    29    22    23      1
    30    22    24      1
    31    22    31      1
    32    23    32      1
    33    23    33      1
    34    24    25      1
    35    24    34      1
    36    24    35      1
    37    25    26      1
    38    25    36      1
    39    26    37      1
    40    26    38      1
    41    26    39      1
    42    39    40      1
    43    39    41      1
    44    39    42      1
    45    40    43      1
    46    40    44      1
    47    40    48      1
    48    45    46      1
    49    45    50      1
    50    45    52      1
    51    45    53      1
    52    46    47      1
    53    46    54      1
    54    46    55      1
    55    47    48      1
    56    47    49      1
    57    47    56      1
    58    48    57      1
    59    48    58      1
    60    49    50      1
    61    49    59      1
    62    49    60      1
    63    50    51      1
    64    50    61      1
    65    51    62      1
    66    51    63      1
    67    51    64      1
    68    64    65      1
    69    64    66      1
    70    64    67      1
    71    65    68      1
    72    65    69      1
    73    65    73      1
    74    70    71      1
    75    70    75      1
    76    70    77      1
    77    70    78      1
    78    71    72      1
    79    71    79      1
    80    71    80      1
    81    72    73      1
    82    72    74      1
    83    72    81      1
    84    73    82      1
    85    73    83      1
    86    74    75      1
    87    74    84      1
    88    74    85      1
    89    75    76      1
    90    75    86      1
    91    76    87      1
    92    76    88      1
    93    76    92      1
    94    89    90      1
    95    89    94      1
    96    89    96      1
    97    89    97      1
    98    90    91      1
    99    90    98      1
   100    90    99      1
   101    91    92      1
   102    91    93      1
   103    91   100      1
   104    92   101      1
   105    92   102      1
   106    93    94      1
   107    93   103      1
   108    93   104      1
   109    94    95      1
   110    94   105      1
   111    95   106      1
   112    95   107      1
   113    95   108      1
   114   108   109      1
   115   108   110      1
   116   108   111      1
   117   109   112      1
   118   109   113      1
   119   109   114      1
   120   114   115      1
   121   114   116      1
   122   114   117      1
   123   115   118      1
   124   115   119      1
   125   115   120      1
   126   120   121      1
   127   120   122      1
   128   120   123      1
   129   121   124      1
   130   121   125      1
   131   121   126      1
   132   126   127      1
   133   126   128      1
   134   126   129      1
   135   127   130      1
   136   127   131      1
   137   127   135      1
   138   132   133      1
   139   132   137      1
   140   132   139      1
   141   132   140      1
   142   133   134      1
   143   133   141      1
   144   133   142      1
   145   134   135      1
   146   134   136      1
   147   134   143      1
   148   135   144      1
   149   135   145      1
   150   136   137      1
   151   136   146      1
   152   136   147      1
   153   137   138      1
   154   137   148      1
   155   138   149      1
   156   138   150      1
   157   138   154      1
   158   151   152      1
   159   151   156      1
   160   151   158      1
   161   151   159      1
   162   152   153      1
   163   152   160      1
   164   152   161      1
   165   153   154      1
   166   153   155      1
   167   153   162      1
   168   154   163      1
   169   154   164      1
   170   155   156      1
   171   155   165      1
   172   155   166      1
   173   156   157      1
   174   156   167      1
   175   157   168      1
   176   157   169      1
   177   157   170      1
   178   170   171      1
   179   170   172      1
   180   170   173      1
   181   171   174      1
   182   171   175      1
   183   171   179      1
   184   176   177      1
   185   176   181      1
   186   176   183      1
   187   176   184      1
   188   177   178      1
   189   177   185      1
   190   177   186      1
   191   178   179      1
   192   178   180      1
   193   178   187      1
   194   179   188      1
   195   179   189      1
   196   180   181      1
   197   180   190      1
   198   180   191      1
   199   181   182      1
   200   181   192      1
   201   182   193      1
   202   182   194      1
   203   182   195      1
   204   195   196      1
   205   195   197      1
   206   195   198      1
   207   196   199      1
   208   196   200      1
   209   196   204      1
   210   201   202      1
   211   201   206      1
   212   201   208      1
   213   201   209      1
   214   202   203      1
   215   202   210      1
   216   202   211      1
   217   203   204      1
   218   203   205      1
   219   203   212      1
   220   204   213      1
   221   204   214      1
   222   205   206      1
   223   205   215      1
   224   205   216      1
   225   206   207      1
   226   206   217      1
   227   207   218      1
   228   207   219      1
   229   207   223      1
   230   220   221      1
   231   220   225      1
   232   220   227      1
   233   220   228      1
   234   221   222      1
   235   221   229      1
   236   221   230      1
   237   222   223      1
   238   222   224      1
   239   222   231      1
   240   223   232      1
   241   223   233      1
   242   224   225      1
   243   224   234      1
   244   224   235      1
   245   225   226      1
   246   225   236      1
   247   226   237      1
   248   226   238      1
   249   226   242      1
   250   239   240      1
   251   239   244      1
   252   239   246      1
   253   239   247      1
   254   240   241      1
   255   240   248      1
   256   240   249      1
   257   241   242      1
   258   241   243      1
   259   241   250      1
   260   242   251      1
   261   242   252      1
   262   243   244      1
   263   243   253      1
   264   243   254      1
   265   244   245      1
   266   244   255      1
   267   245   256      1
   268   245   257      1
   269   245   261      1
   270   258   259      1
   271   258   263      1
   272   258   265      1
   273   258   266      1
   274   259   260      1
   275   259   267      1
   276   259   268      1
   277   260   261      1
   278   260   262      1
   279   260   269      1
   280   261   270      1
   281   261   271      1
   282   262   263      1
   283   262   272      1
   284   262   273      1
   285   263   264      1
   286   263   274      1
   287   264   275      1
   288   264   276      1
   289   264   277      1
   290   277   278      1
   291   277   279      1
   292   277   280      1
   293   278   281      1
   294   278   282      1
   295   278   286      1
   296   283   284      1
   297   283   288      1
   298   283   290      1
   299   283   291      1
   300   284   285      1
   301   284   292      1
   302   284   293      1
   303   285   286      1
   304   285   287      1
   305   285   294      1
   306   286   295      1
   307   286   296      1
   308   287   288      1
   309   287   297      1
   310   287   298      1
   311   288   289      1
   312   288   299      1
   313   289   300      1
   314   289   301      1
   315   289   305      1
   316   302   303      1
   317   302   307      1
   318   302   309      1
   319   302   310      1
   320   303   304      1
   321   303   311      1
   322   303   312      1
   323   304   305      1
   324   304   306      1
   325   304   313      1
   326   305   314      1
   327   305   315      1
   328   306   307      1
   329   306   316      1
   330   306   317      1
   331   307   308      1
   332   307   318      1
   333   308   319      1
   334   308   320      1
   335   308   324      1
   336   321   322      1
   337   321   326      1
   338   321   328      1
   339   321   329      1
   340   322   323      1
   341   322   330      1
   342   322   331      1
   343   323   324      1
   344   323   325      1
   345   323   332      1
   346   324   333      1
   347   324   334      1
   348   325   326      1
   349   325   335      1
   350   325   336      1
   351   326   327      1
   352   326   337      1
   353   327   338      1
   354   327   339      1
   355   327   343      1
   356   340   341      1
   357   340   345      1
   358   340   347      1
   359   340   348      1
   360   341   342      1
   361   341   349      1
   362   341   350      1
   363   342   343      1
   364   342   344      1
   365   342   351      1
   366   343   352      1
   367   343   353      1
   368   344   345      1
   369   344   354      1
   370   344   355      1
   371   345   346      1
   372   345   356      1
   373   346   357      1
   374   346   358      1
   375   346   362      1
   376   359   360      1
   377   359   364      1
   378   359   366      1
   379   359   367      1
   380   360   361      1
   381   360   368      1
   382   360   369      1
   383   361   362      1
   384   361   363      1
   385   361   370      1
   386   362   371      1
   387   362   372      1
   388   363   364      1
   389   363   373      1
   390   363   374      1
   391   364   365      1
   392   364   375      1
   393   365   376      1
   394   365   377      1
   395   365   381      1
   396   378   379      1
   397   378   383      1
   398   378   385      1
   399   378   386      1
   400   379   380      1
   401   379   387      1
   402   379   388      1
   403   380   381      1
   404   380   382      1
   405   380   389      1
   406   381   390      1
   407   381   391      1
   408   382   383      1
   409   382   392      1
   410   382   393      1
   411   383   384      1
   412   383   394      1
   413   384   395      1
   414   384   396      1
   415   384   397      1
   416   397   398      1
   417   397   399      1
   418   397   400      1
   419   398   401      1
   420   398   402      1
   421   398   406      1
   422   403   404      1
   423   403   408      1
   424   403   410      1
   425   403   411      1
   426   404   405      1
   427   404   412      1
   428   404   413      1
   429   405   406      1
   430   405   407      1
   431   405   414      1
   432   406   415      1
   433   406   416      1
   434   407   408      1
   435   407   417      1
   436   407   418      1
   437   408   409      1
   438   408   419      1
   439   409   420      1
   440   409   421      1
   441   409   425      1
   442   422   423      1
   443   422   427      1
   444   422   429      1
   445   422   430      1
   446   423   424      1
   447   423   431      1
   448   423   432      1
   449   424   425      1
   450   424   426      1
   451   424   433      1
   452   425   434      1
   453   425   435      1
   454   426   427      1
   455   426   436      1
   456   426   437      1
   457   427   428      1
   458   427   438      1
   459   428   439      1
   460   428   440      1
   461   428   444      1
   462   441   442      1
   463   441   446      1
   464   441   448      1
   465   441   449      1
   466   442   443      1
   467   442   450      1
   468   442   451      1
   469   443   444      1
   470   443   445      1
   471   443   452      1
   472   444   453      1
   473   444   454      1
   474   445   446      1
   475   445   455      1
   476   445   456      1
   477   446   447      1
   478   446   457      1
   479   447   458      1
   480   447   459      1
   481   447   463      1
   482   460   461      1
   483   460   465      1
   484   460   467      1
   485   460   468      1
   486   461   462      1
   487   461   469      1
   488   461   470      1
   489   462   463      1
   490   462   464      1
   491   462   471      1
   492   463   472      1
   493   463   473      1
   494   464   465      1
   495   464   474      1
   496   464   475      1
   497   465   466      1
   498   465   476      1
   499   466   477      1
   500   466   478      1
   501   466   479      1
   502   479   480      1
   503   479   481      1
   504   479   482      1
   505   480   483      1
   506   480   484      1
   507   480   488      1
   508   485   486      1
   509   485   490      1
   510   485   492      1
   511   485   493      1
   512   486   487      1
   513   486   494      1
   514   486   495      1
   515   487   488      1
   516   487   489      1
   517   487   496      1
   518   488   497      1
   519   488   498      1
   520   489   490      1
   521   489   499      1
   522   489   500      1
   523   490   491      1
   524   490   501      1
   525   491   502      1
   526   491   503      1
   527   491   507      1
   528   504   505      1
   529   504   509      1
   530   504   511      1
   531   504   512      1
   532   505   506      1
   533   505   513      1
   534   505   514      1
   535   506   507      1
   536   506   508      1
   537   506   515      1
   538   507   516      1
   539   507   517      1
   540   508   509      1
   541   508   518      1
   542   508   519      1
   543   509   510      1
   544   509   520      1
   545   510   521      1
   546   510   522      1
   547   510   526      1
   548   523   524      1
   549   523   528      1
   550   523   530      1
   551   523   531      1
   552   524   525      1
   553   524   532      1
   554   524   533      1
   555   525   526      1
   556   525   527      1
   557   525   534      1
   558   526   535      1
   559   526   536      1
   560   527   528      1
   561   527   537      1
   562   527   538      1
   563   528   529      1
   564   528   539      1
   565   529   540      1
   566   529   541      1
   567   529   545      1
   568   542   543      1
   569   542   547      1
   570   542   549      1
   571   542   550      1
   572   543   544      1
   573   543   551      1
   574   543   552      1
   575   544   545      1
   576   544   546      1
   577   544   553      1
   578   545   554      1
   579   545   555      1
   580   546   547      1
   581   546   556      1
   582   546   557      1
   583   547   548      1
   584   547   558      1
   585   548   559      1
   586   548   560      1
   587   548   564      1
   588   561   562      1
   589   561   566      1
   590   561   568      1
   591   561   569      1
   592   562   563      1
   593   562   570      1
   594   562   571      1
   595   563   564      1
   596   563   565      1
   597   563   572      1
   598   564   573      1
   599   564   574      1
   600   565   566      1
   601   565   575      1
   602   565   576      1
   603   566   567      1
   604   566   577      1
   605   567   578      1
   606   567   579      1
   607   567   583      1
   608   580   581      1
   609   580   585      1
   610   580   587      1
   611   580   588      1
   612   581   582      1
   613   581   589      1
   614   581   590      1
   615   582   583      1
   616   582   584      1
   617   582   591      1
   618   583   592      1
   619   583   593      1
   620   584   585      1
   621   584   594      1
   622   584   595      1
   623   585   586      1
   624   585   596      1
   625   586   597      1
   626   586   598      1
   627   586   602      1
   628   599   600      1
   629   599   604      1
   630   599   606      1
   631   599   607      1
   632   600   601      1
   633   600   608      1
   634   600   609      1
   635   601   602      1
   636   601   603      1
   637   601   610      1
   638   602   611      1
   639   602   612      1
   640   603   604      1
   641   603   613      1
   642   603   614      1
   643   604   605      1
   644   604   615      1
   645   605   616      1
   646   605   617      1
   647   605   621      1
   648   618   619      1
   649   618   623      1
   650   618   625      1
   651   618   626      1
   652   619   620      1
   653   619   627      1
   654   619   628      1
   655   620   621      1
   656   620   622      1
   657   620   629      1
   658   621   630      1
   659   621   631      1
   660   622   623      1
   661   622   632      1
   662   622   633      1
   663   623   624      1
   664   623   634      1
   665   624   635      1
   666   624   636      1
   667   624   640      1
   668   637   638      1
   669   637   642      1
   670   637   644      1
   671   637   645      1
   672   638   639      1
   673   638   646      1
   674   638   647      1
   675   639   640      1
   676   639   641      1
   677   639   648      1
   678   640   649      1
   679   640   650      1
   680   641   642      1
   681   641   651      1
   682   641   652      1
   683   642   643      1
   684   642   653      1
   685   643   654      1
   686   643   655      1
   687   643   659      1
   688   656   657      1
   689   656   661      1
   690   656   663      1
   691   656   664      1
   692   657   658      1
   693   657   665      1
   694   657   666      1
   695   658   659      1
   696   658   660      1
   697   658   667      1
   698   659   668      1
   699   659   669      1
   700   660   661      1
   701   660   670      1
   702   660   671      1
   703   661   662      1
   704   661   672      1
   705   662   673      1
   706   662   674      1
   707   662   675      1
   708   675   676      1
   709   675   677      1
   710   675   678      1
   711   676   679      1
   712   676   680      1
   713   676   684      1
   714   681   682      1
   715   681   686      1
   716   681   688      1
   717   681   689      1
   718   682   683      1
   719   682   690      1
   720   682   691      1
   721   683   684      1
   722   683   685      1
   723   683   692      1
   724   684   693      1
   725   684   694      1
   726   685   686      1
   727   685   695      1
   728   685   696      1
   729   686   687      1
   730   686   697      1
   731   687   698      1
   732   687   699      1
   733   687   703      1
   734   700   701      1
   735   700   705      1
   736   700   707      1
   737   700   708      1
   738   701   702      1
   739   701   709      1
   740   701   710      1
   741   702   703      1
   742   702   704      1
   743   702   711      1
   744   703   712      1
   745   703   713      1
   746   704   705      1
   747   704   714      1
   748   704   715      1
   749   705   706      1
   750   705   716      1
   751   706   717      1
   752   706   718      1
   753   706   722      1
   754   719   720      1
   755   719   724      1
   756   719   726      1
   757   719   727      1
   758   720   721      1
   759   720   728      1
   760   720   729      1
   761   721   722      1
   762   721   723      1
   763   721   730      1
   764   722   731      1
   765   722   732      1
   766   723   724      1
   767   723   733      1
   768   723   734      1
   769   724   725      1
   770   724   735      1
   771   725   736      1
   772   725   737      1
   773   725   741      1
   774   738   739      1
   775   738   743      1
   776   738   745      1
   777   738   746      1
   778   739   740      1
   779   739   747      1
   780   739   748      1
   781   740   741      1
   782   740   742      1
   783   740   749      1
   784   741   750      1
   785   741   751      1
   786   742   743      1
   787   742   752      1
   788   742   753      1
   789   743   744      1
   790   743   754      1
   791   744   755      1
   792   744   756      1
   793   744   760      1
   794   757   758      1
   795   757   762      1
   796   757   764      1
   797   757   765      1
   798   758   759      1
   799   758   766      1
   800   758   767      1
   801   759   760      1
   802   759   761      1
   803   759   768      1
   804   760   769      1
   805   760   770      1
   806   761   762      1
   807   761   771      1
   808   761   772      1
   809   762   763      1
   810   762   773      1
   811   763   774      1
   812   763   775      1
   813   763   779      1
   814   776   777      1
   815   776   781      1
   816   776   783      1
   817   776   784      1
   818   777   778      1
   819   777   785      1
   820   777   786      1
   821   778   779      1
   822   778   780      1
   823   778   787      1
   824   779   788      1
   825   779   789      1
   826   780   781      1
   827   780   790      1
   828   780   791      1
   829   781   782      1
   830   781   792      1
   831   782   793      1
   832   782   794      1
   833   782   795      1
   834   795   796      1
   835   795   797      1
   836   795   798      1
   837   796   799      1
   838   796   800      1
   839   796   804      1
   840   801   802      1
   841   801   806      1
   842   801   808      1
   843   801   809      1
   844   802   803      1
   845   802   810      1
   846   802   811      1
   847   803   804      1
   848   803   805      1
   849   803   812      1
   850   804   813      1
   851   804   814      1
   852   805   806      1
   853   805   815      1
   854   805   816      1
   855   806   807      1
   856   806   817      1
   857   807   818      1
   858   807   819      1
   859   807   823      1
   860   820   821      1
   861   820   825      1
   862   820   827      1
   863   820   828      1
   864   821   822      1
   865   821   829      1
   866   821   830      1
   867   822   823      1
   868   822   824      1
   869   822   831      1
   870   823   832      1
   871   823   833      1
   872   824   825      1
   873   824   834      1
   874   824   835      1
   875   825   826      1
   876   825   836      1
   877   826   837      1
   878   826   838      1
   879   826   839      1
   880   839   840      1
   881   839   841      1
   882   839   842      1
   883   840   843      1
   884   840   844      1
   885   840   848      1
   886   845   846      1
   887   845   850      1
   888   845   852      1
   889   845   853      1
   890   846   847      1
   891   846   854      1
   892   846   855      1
   893   847   848      1
   894   847   849      1
   895   847   856      1
   896   848   857      1
   897   848   858      1
   898   849   850      1
   899   849   859      1
   900   849   860      1
   901   850   851      1
   902   850   861      1
   903   851   862      1
   904   851   863      1
   905   851   867      1
   906   864   865      1
   907   864   869      1
   908   864   871      1
   909   864   872      1
   910   865   866      1
   911   865   873      1
   912   865   874      1
   913   866   867      1
   914   866   868      1
   915   866   875      1
   916   867   876      1
   917   867   877      1
   918   868   869      1
   919   868   878      1
   920   868   879      1
   921   869   870      1
   922   869   880      1
   923   870   881      1
   924   870   882      1
   925   870   883      1
   926   883   884      1
   927   883   885      1
   928   883   886      1
   929   884   887      1
   930   884   888      1
   931   884   892      1
   932   889   890      1
   933   889   894      1
   934   889   896      1
   935   889   897      1
   936   890   891      1
   937   890   898      1
   938   890   899      1
   939   891   892      1
   940   891   893      1
   941   891   900      1
   942   892   901      1
   943   892   902      1
   944   893   894      1
   945   893   903      1
   946   893   904      1
   947   894   895      1
   948   894   905      1
   949   895   906      1
   950   895   907      1
   951   895   908      1
   952   908   909      1
   953   908   910      1
   954   908   911      1
   955   909   912      1
   956   909   913      1
   957   909   917      1
   958   914   915      1
   959   914   919      1
   960   914   921      1
   961   914   922      1
   962   915   916      1
   963   915   923      1
   964   915   924      1
   965   916   917      1
   966   916   918      1
   967   916   925      1
   968   917   926      1
   969   917   927      1
   970   918   919      1
   971   918   928      1
   972   918   929      1
   973   919   920      1
   974   919   930      1
   975   920   931      1
   976   920   932      1
   977   920   936      1
   978   933   934      1
   979   933   938      1
   980   933   940      1
   981   933   941      1
   982   934   935      1
   983   934   942      1
   984   934   943      1
   985   935   936      1
   986   935   937      1
   987   935   944      1
   988   936   945      1
   989   936   946      1
   990   937   938      1
   991   937   947      1
   992   937   948      1
   993   938   939      1
   994   938   949      1
   995   939   950      1
   996   939   951      1
   997   939   955      1
   998   952   953      1
   999   952   957      1
  1000   952   959      1
  1001   952   960      1
  1002   953   954      1
  1003   953   961      1
  1004   953   962      1
  1005   954   955      1
  1006   954   956      1
  1007   954   963      1
  1008   955   964      1
  1009   955   965      1
  1010   956   957      1
  1011   956   966      1
  1012   956   967      1
  1013   957   958      1
  1014   957   968      1
  1015   958   969      1
  1016   958   970      1
  1017   958   971      1
  1018   971   972      1
  1019   971   973      1
  1020   971   974      1
  1021   972   975      1
  1022   972   976      1
  1023   972   980      1
  1024   977   978      1
  1025   977   982      1
  1026   977   984      1
  1027   977   985      1
  1028   978   979      1
  1029   978   986      1
  1030   978   987      1
  1031   979   980      1
  1032   979   981      1
  1033   979   988      1
  1034   980   989      1
  1035   980   990      1
  1036   981   982      1
  1037   981   991      1
  1038   981   992      1
  1039   982   983      1
  1040   982   993      1
  1041   983   994      1
  1042   983   995      1
  1043   983   999      1
  1044   996   997      1
  1045   996  1001      1
  1046   996  1003      1
  1047   996  1004      1
  1048   997   998      1
  1049   997  1005      1
  1050   997  1006      1
  1051   998   999      1
  1052   998  1000      1
  1053   998  1007      1
  1054   999  1008      1
  1055   999  1009      1
  1056  1000  1001      1
  1057  1000  1010      1
  1058  1000  1011      1
  1059  1001  1002      1
  1060  1001  1012      1
  1061  1002  1013      1
  1062  1002  1014      1
  1063  1002  1015      1
  1064  1015  1016      1
  1065  1015  1017      1
  1066  1015  1018      1
  1067  1016  1019      1
  1068  1016  1020      1
  1069  1016  1024      1
  1070  1021  1022      1
  1071  1021  1026      1
  1072  1021  1028      1
  1073  1021  1029      1
  1074  1022  1023      1
  1075  1022  1030      1
  1076  1022  1031      1
  1077  1023  1024      1
  1078  1023  1025      1
  1079  1023  1032      1
  1080  1024  1033      1
  1081  1024  1034      1
  1082  1025  1026      1
  1083  1025  1035      1
  1084  1025  1036      1
  1085  1026  1027      1
  1086  1026  1037      1
  1087  1027  1038      1
  1088  1027  1039      1
  1089  1027  1043      1
  1090  1040  1041      1
  1091  1040  1045      1
  1092  1040  1047      1
  1093  1040  1048      1
  1094  1041  1042      1
  1095  1041  1049      1
  1096  1041  1050      1
  1097  1042  1043      1
  1098  1042  1044      1
  1099  1042  1051      1
  1100  1043  1052      1
  1101  1043  1053      1
  1102  1044  1045      1
  1103  1044  1054      1
  1104  1044  1055      1
  1105  1045  1046      1
  1106  1045  1056      1
  1107  1046  1057      1
  1108  1046  1058      1
  1109  1046  1059      1
  1110  1059  1060      1
  1111  1059  1061      1
  1112  1059  1062      1
  1113  1060  1063      1
  1114  1060  1064      1
  1115  1060  1068      1
  1116  1065  1066      1
  1117  1065  1070      1
  1118  1065  1072      1
  1119  1065  1073      1
  1120  1066  1067      1
  1121  1066  1074      1
  1122  1066  1075      1
  1123  1067  1068      1
  1124  1067  1069      1
  1125  1067  1076      1
  1126  1068  1077      1
  1127  1068  1078      1
  1128  1069  1070      1
  1129  1069  1079      1
  1130  1069  1080      1
  1131  1070  1071      1
  1132  1070  1081      1
  1133  1071  1082      1
  1134  1071  1083      1
  1135  1071  1087      1
  1136  1084  1085      1
  1137  1084  1089      1
  1138  1084  1091      1
  1139  1084  1092      1
  1140  1085  1086      1
  1141  1085  1093      1
  1142  1085  1094      1
  1143  1086  1087      1
  1144  1086  1088      1
  1145  1086  1095      1
  1146  1087  1096      1
  1147  1087  1097      1
  1148  1088  1089      1
  1149  1088  1098      1
  1150  1088  1099      1
  1151  1089  1090      1
  1152  1089  1100      1
  1153  1090  1101      1
  1154  1090  1102      1
  1155  1090  1103      1
  1156  1103  1104      1
  1157  1103  1105      1
  1158  1103  1106      1
  1159  1104  1107      1
  1160  1104  1108      1
  1161  1104  1109      1
  1162  1109  1110      1
  1163  1109  1111      1
  1164  1109  1112      1
  1165  1110  1113      1
  1166  1110  1114      1
  1167  1110  1118      1
  1168  1115  1116      1
  1169  1115  1120      1
  1170  1115  1122      1
  1171  1115  1123      1
  1172  1116  1117      1
  1173  1116  1124      1
  1174  1116  1125      1
  1175  1117  1118      1
  1176  1117  1119      1
  1177  1117  1126      1
  1178  1118  1127      1
  1179  1118  1128      1
  1180  1119  1120      1
  1181  1119  1129      1
  1182  1119  1130      1
  1183  1120  1121      1
  1184  1120  1131      1
  1185  1121  1132      1
  1186  1121  1133      1
  1187  1121  1137      1
  1188  1134  1135      1
  1189  1134  1139      1
  1190  1134  1141      1
  1191  1134  1142      1
  1192  1135  1136      1
  1193  1135  1143      1
  1194  1135  1144      1
  1195  1136  1137      1
  1196  1136  1138      1
  1197  1136  1145      1
  1198  1137  1146      1
  1199  1137  1147      1
  1200  1138  1139      1
  1201  1138  1148      1
  1202  1138  1149      1
  1203  1139  1140      1
  1204  1139  1150      1
  1205  1140  1151      1
  1206  1140  1152      1
  1207  1140  1153      1
  1208  1153  1154      1
  1209  1153  1155      1
  1210  1153  1156      1
  1211  1154  1157      1
  1212  1154  1158      1
  1213  1154  1162      1
  1214  1159  1160      1
  1215  1159  1164      1
  1216  1159  1166      1
  1217  1159  1167      1
  1218  1160  1161      1
  1219  1160  1168      1
  1220  1160  1169      1
  1221  1161  1162      1
  1222  1161  1163      1
  1223  1161  1170      1
  1224  1162  1171      1
  1225  1162  1172      1
  1226  1163  1164      1
  1227  1163  1173      1
  1228  1163  1174      1
  1229  1164  1165      1
  1230  1164  1175      1
  1231  1165  1176      1
  1232  1165  1177      1
  1233  1165  1178      H
