###
### Created by PolyChef-cpp17 on Wed Feb 26 21:14:13 2025
###

@<TRIPOS>MOLECULE
NO_INFO
1582 1655 1 0 0
SMALL
USER_CHARGES


@<TRIPOS>ATOM
      1 C         242.2128  150.7646  180.2102 C.3       0        0    0.0000
      2 C         243.3609  149.7722  180.0900 C.3       0        0    0.0000
      3 C         244.0883  150.2426  178.8261 C.3       0        0    0.0000
      4 C         245.0511  149.2261  178.2049 C.3       0        0    0.0000
      5 C         242.9803  150.7657  177.8912 C.3       0        0    0.0000
      6 C         241.7174  150.8906  178.7658 C.3       0        0    0.0000
      7 C         240.8325  152.1073  178.4780 C.3       0        0    0.0000
      8 H         241.4294  150.4038  180.8837 H         0        0    0.0000
      9 H         242.5865  151.7169  180.6022 H         0        0    0.0000
     10 H         244.0114  149.7909  180.9699 H         0        0    0.0000
     11 H         242.9628  148.7571  179.9827 H         0        0    0.0000
     12 H         244.6964  151.1136  179.1137 H         0        0    0.0000
     13 H         244.4703  148.4229  177.7362 H         0        0    0.0000
     14 H         245.6186  149.7135  177.4032 H         0        0    0.0000
     15 H         242.7788  150.0922  177.0513 H         0        0    0.0000
     16 H         243.2912  151.7205  177.4536 H         0        0    0.0000
     17 H         241.1021  150.0014  178.5610 H         0        0    0.0000
     18 H         241.2234  152.9721  179.0271 H         0        0    0.0000
     19 H         240.8990  152.3548  177.4119 H         0        0    0.0000
     20 C         238.9117  148.2950  178.1371 C.3       1        0    0.0000
     21 C         239.6653  149.5827  177.7951 C.3       1        0    0.0000
     22 C         238.7003  150.7469  178.0825 C.3       1        0    0.0000
     23 C         239.3329  151.9118  178.8538 C.3       1        0    0.0000
     24 C         237.5406  150.1017  178.8480 C.3       1        0    0.0000
     25 C         237.4359  148.6868  178.2689 C.3       1        0    0.0000
     26 C         236.6791  148.6555  176.9275 C.3       1        0    0.0000
     27 H         239.0954  147.5075  177.4000 H         1        0    0.0000
     28 H         239.2722  147.9210  179.1039 H         1        0    0.0000
     29 H         240.5901  149.6422  178.3794 H         1        0    0.0000
     30 H         239.9502  149.5882  176.7365 H         1        0    0.0000
     31 H         238.3116  151.1176  177.1232 H         1        0    0.0000
     32 H         238.7925  152.8372  178.6216 H         1        0    0.0000
     33 H         239.2390  151.7516  179.9341 H         1        0    0.0000
     34 H         236.6125  150.6733  178.7445 H         1        0    0.0000
     35 H         237.7757  150.0423  179.9186 H         1        0    0.0000
     36 H         236.9301  148.0310  178.9889 H         1        0    0.0000
     37 H         236.5697  147.6297  176.5586 H         1        0    0.0000
     38 H         237.2533  149.2059  176.1727 H         1        0    0.0000
     39 C         235.2737  149.3141  177.0417 C.3       2        0    0.0000
     40 C         234.1257  148.4253  176.5420 C.3       2        0    0.0000
     41 H         235.1060  149.5201  178.1067 H         2        0    0.0000
     42 H         235.2779  150.2845  176.5317 H         2        0    0.0000
     43 H         233.9995  148.5098  175.4563 H         2        0    0.0000
     44 H         234.3905  147.3801  176.7468 H         2        0    0.0000
     45 C         230.5094  149.8001  174.5166 C.3       3        0    0.0000
     46 C         231.9553  149.6349  174.9909 C.3       3        0    0.0000
     47 C         231.9326  149.7614  176.5247 C.3       3        0    0.0000
     48 C         232.7555  148.6933  177.2557 C.3       3        0    0.0000
     49 C         230.4460  149.7043  176.8907 C.3       3        0    0.0000
     50 C         229.7320  150.3686  175.7087 C.3       3        0    0.0000
     51 C         229.7781  151.9066  175.7836 C.3       3        0    0.0000
     52 H         230.4446  150.4145  173.6136 H         3        0    0.0000
     53 H         230.1060  148.8114  174.2625 H         3        0    0.0000
     54 H         232.3545  148.6736  174.6489 H         3        0    0.0000
     55 H         232.5894  150.4197  174.5622 H         3        0    0.0000
     56 H         232.3124  150.7572  176.7943 H         3        0    0.0000
     57 H         232.9564  149.0280  178.2804 H         3        0    0.0000
     58 H         232.1880  147.7587  177.3322 H         3        0    0.0000
     59 H         230.2393  150.1993  177.8451 H         3        0    0.0000
     60 H         230.1142  148.6616  176.9793 H         3        0    0.0000
     61 H         228.6867  150.0358  175.6760 H         3        0    0.0000
     62 H         230.8008  152.2785  175.6561 H         3        0    0.0000
     63 H         229.4417  152.2329  176.7749 H         3        0    0.0000
     64 C         228.8544  152.5647  174.7180 C.3       4        0    0.0000
     65 C         229.5693  152.9196  173.4063 C.3       4        0    0.0000
     66 H         228.0655  151.8367  174.4895 H         4        0    0.0000
     67 H         228.3568  153.4405  175.1506 H         4        0    0.0000
     68 H         229.1932  153.8610  172.9891 H         4        0    0.0000
     69 H         230.6321  153.0780  173.6300 H         4        0    0.0000
     70 C         228.0866  149.6136  170.3094 C.3       5        0    0.0000
     71 C         227.9132  151.1283  170.4505 C.3       5        0    0.0000
     72 C         228.0455  151.4459  171.9440 C.3       5        0    0.0000
     73 C         229.4989  151.7935  172.3175 C.3       5        0    0.0000
     74 C         227.5121  150.1628  172.5938 C.3       5        0    0.0000
     75 C         228.0868  149.0343  171.7338 C.3       5        0    0.0000
     76 C         227.3020  147.7265  171.8875 C.3       5        0    0.0000
     77 H         227.2791  149.2048  169.6913 H         5        0    0.0000
     78 H         229.0313  149.3792  169.8055 H         5        0    0.0000
     79 H         226.9065  151.4020  170.1099 H         5        0    0.0000
     80 H         228.6233  151.6809  169.8270 H         5        0    0.0000
     81 H         227.3989  152.2943  172.2025 H         5        0    0.0000
     82 H         230.0261  152.1467  171.4230 H         5        0    0.0000
     83 H         230.0406  150.9096  172.6706 H         5        0    0.0000
     84 H         226.4155  150.1587  172.5432 H         5        0    0.0000
     85 H         227.7917  150.0560  173.6461 H         5        0    0.0000
     86 H         229.1291  148.8632  172.0377 H         5        0    0.0000
     87 H         227.4561  147.3047  172.8875 H         5        0    0.0000
     88 H         227.6794  146.9889  171.1695 H         5        0    0.0000
     89 C         225.5703  149.2421  168.1076 C.3       6        0    0.0000
     90 C         226.3883  148.7585  169.3079 C.3       6        0    0.0000
     91 C         225.5036  148.9668  170.5440 C.3       6        0    0.0000
     92 C         225.7802  147.9324  171.6387 C.3       6        0    0.0000
     93 C         224.0844  148.9229  169.9679 C.3       6        0    0.0000
     94 C         224.2254  149.7226  168.6685 C.3       6        0    0.0000
     95 C         223.0777  149.5304  167.6733 C.3       6        0    0.0000
     96 H         226.0833  150.0485  167.5725 H         6        0    0.0000
     97 H         225.4375  148.4155  167.3995 H         6        0    0.0000
     98 H         227.3289  149.3120  169.4003 H         6        0    0.0000
     99 H         226.6456  147.7012  169.1721 H         6        0    0.0000
    100 H         225.6926  149.9775  170.9343 H         6        0    0.0000
    101 H         225.3412  146.9707  171.3472 H         6        0    0.0000
    102 H         225.2944  148.2307  172.5751 H         6        0    0.0000
    103 H         223.3531  149.3722  170.6474 H         6        0    0.0000
    104 H         223.7756  147.8903  169.7623 H         6        0    0.0000
    105 H         224.3208  150.7887  168.9213 H         6        0    0.0000
    106 H         222.8825  150.4641  167.1331 H         6        0    0.0000
    107 H         222.1604  149.2848  168.2217 H         6        0    0.0000
    108 C         223.3633  148.3934  166.6542 C.3       7        0    0.0000
    109 C         222.1765  148.0650  165.7371 C.3       7        0    0.0000
    110 H         224.1958  148.7337  166.0250 H         7        0    0.0000
    111 H         223.7160  147.5014  167.1851 H         7        0    0.0000
    112 H         221.2318  148.0615  166.2932 H         7        0    0.0000
    113 H         222.0957  148.8615  164.9864 H         7        0    0.0000
    114 C         222.3323  146.7168  164.9516 C.3       8        0    0.0000
    115 C         221.0923  146.3230  164.1363 C.3       8        0    0.0000
    116 H         222.5112  145.9335  165.6992 H         8        0    0.0000
    117 H         223.2279  146.7583  164.3207 H         8        0    0.0000
    118 H         221.4056  146.1612  163.0970 H         8        0    0.0000
    119 H         220.6689  145.3746  164.4873 H         8        0    0.0000
    120 C         219.9742  147.4219  164.1063 C.3       9        0    0.0000
    121 C         218.6482  146.9462  163.4955 C.3       9        0    0.0000
    122 H         219.7851  147.7100  165.1483 H         9        0    0.0000
    123 H         220.3496  148.3171  163.5967 H         9        0    0.0000
    124 H         218.7101  146.8898  162.4024 H         9        0    0.0000
    125 H         218.4558  145.9261  163.8519 H         9        0    0.0000
    126 C         217.4086  147.8121  163.9107 C.3      10        0    0.0000
    127 C         216.0618  147.0944  163.7425 C.3      10        0    0.0000
    128 H         217.4072  148.6958  163.2598 H        10        0    0.0000
    129 H         217.5403  148.1781  164.9357 H        10        0    0.0000
    130 H         215.6467  147.3740  162.7658 H        10        0    0.0000
    131 H         216.1890  146.0055  163.7288 H        10        0    0.0000
    132 C         211.8317  145.7022  165.9465 C.3      11        0    0.0000
    133 C         212.6757  146.9658  165.8549 C.3      11        0    0.0000
    134 C         213.7565  146.5819  164.8388 C.3      11        0    0.0000
    135 C         214.9915  147.4878  164.8187 C.3      11        0    0.0000
    136 C         214.0335  145.0862  165.0867 C.3      11        0    0.0000
    137 C         212.8848  144.5900  165.9866 C.3      11        0    0.0000
    138 C         212.3661  143.1820  165.6789 C.3      11        0    0.0000
    139 H         211.1960  145.6989  166.8373 H        11        0    0.0000
    140 H         211.1842  145.6251  165.0661 H        11        0    0.0000
    141 H         212.0875  147.8272  165.5239 H        11        0    0.0000
    142 H         213.0988  147.2002  166.8379 H        11        0    0.0000
    143 H         213.2976  146.6572  163.8414 H        11        0    0.0000
    144 H         214.6742  148.5217  164.6384 H        11        0    0.0000
    145 H         215.4642  147.4714  165.8080 H        11        0    0.0000
    146 H         214.9923  144.9077  165.5853 H        11        0    0.0000
    147 H         214.0813  144.5590  164.1278 H        11        0    0.0000
    148 H         213.2785  144.5604  167.0138 H        11        0    0.0000
    149 H         213.1353  142.4496  165.9511 H        11        0    0.0000
    150 H         211.4954  142.9745  166.3123 H        11        0    0.0000
    151 C         208.9993  140.7496  164.9296 C.3      12        0    0.0000
    152 C         210.3558  141.3418  165.3205 C.3      12        0    0.0000
    153 C         211.0405  141.7516  164.0100 C.3      12        0    0.0000
    154 C         211.9663  142.9580  164.1896 C.3      12        0    0.0000
    155 C         209.8616  141.9873  163.0600 C.3      12        0    0.0000
    156 C         208.9208  140.8264  163.3992 C.3      12        0    0.0000
    157 C         207.4846  141.0017  162.8980 C.3      12        0    0.0000
    158 H         208.8989  139.7156  165.2767 H        12        0    0.0000
    159 H         208.1978  141.3301  165.4021 H        12        0    0.0000
    160 H         210.9648  140.6173  165.8719 H        12        0    0.0000
    161 H         210.2012  142.2046  165.9794 H        12        0    0.0000
    162 H         211.6204  140.8922  163.6430 H        12        0    0.0000
    163 H         211.4603  143.8600  163.8250 H        12        0    0.0000
    164 H         212.8714  142.8364  163.5831 H        12        0    0.0000
    165 H         210.1721  141.9689  162.0105 H        12        0    0.0000
    166 H         209.3819  142.9534  163.2612 H        12        0    0.0000
    167 H         209.3453  139.8991  162.9875 H        12        0    0.0000
    168 H         206.8171  141.2431  163.7335 H        12        0    0.0000
    169 H         207.1308  140.0541  162.4744 H        12        0    0.0000
    170 C         207.3690  142.1033  161.8090 C.3      13        0    0.0000
    171 C         206.2110  141.8879  160.8242 C.3      13        0    0.0000
    172 H         207.1972  143.0515  162.3344 H        13        0    0.0000
    173 H         208.3258  142.2051  161.2835 H        13        0    0.0000
    174 H         205.2396  141.9941  161.3213 H        13        0    0.0000
    175 H         206.2611  142.6761  160.0620 H        13        0    0.0000
    176 C         203.0353  138.8139  159.7209 C.3      14        0    0.0000
    177 C         203.7559  140.0811  160.1786 C.3      14        0    0.0000
    178 C         204.9853  140.2427  159.2678 C.3      14        0    0.0000
    179 C         206.2682  140.5181  160.0632 C.3      14        0    0.0000
    180 C         205.0289  138.9510  158.4370 C.3      14        0    0.0000
    181 C         203.5647  138.5099  158.3170 C.3      14        0    0.0000
    182 C         202.7676  139.2574  157.2324 C.3      14        0    0.0000
    183 H         203.3039  137.9901  160.3945 H        14        0    0.0000
    184 H         201.9468  138.9222  159.7608 H        14        0    0.0000
    185 H         204.0178  140.0094  161.2399 H        14        0    0.0000
    186 H         203.0989  140.9518  160.0672 H        14        0    0.0000
    187 H         204.7950  141.0881  158.5916 H        14        0    0.0000
    188 H         207.1395  140.5014  159.3983 H        14        0    0.0000
    189 H         206.4164  139.7189  160.7993 H        14        0    0.0000
    190 H         205.5127  139.1030  157.4672 H        14        0    0.0000
    191 H         205.5951  138.1751  158.9686 H        14        0    0.0000
    192 H         203.5092  137.4304  158.1269 H        14        0    0.0000
    193 H         203.0943  140.2993  157.1463 H        14        0    0.0000
    194 H         201.7086  139.2838  157.5166 H        14        0    0.0000
    195 C         202.8757  138.5630  155.8454 C.3      15        0    0.0000
    196 C         204.0423  139.0678  154.9842 C.3      15        0    0.0000
    197 H         203.0323  137.4938  156.0378 H        15        0    0.0000
    198 H         201.9209  138.6492  155.3136 H        15        0    0.0000
    199 H         203.7703  139.0988  153.9226 H        15        0    0.0000
    200 H         204.2630  140.1009  155.2818 H        15        0    0.0000
    201 C         207.4854  136.7810  157.7797 C.3      16        0    0.0000
    202 C         206.9769  138.0722  157.1403 C.3      16        0    0.0000
    203 C         205.5628  137.7755  156.6119 C.3      16        0    0.0000
    204 C         205.3685  138.2512  155.1662 C.3      16        0    0.0000
    205 C         205.3839  136.2613  156.8022 C.3      16        0    0.0000
    206 C         206.2480  135.9125  158.0206 C.3      16        0    0.0000
    207 C         205.5854  136.2263  159.3744 C.3      16        0    0.0000
    208 H         208.1513  136.2724  157.0708 H        16        0    0.0000
    209 H         208.0656  136.9723  158.6879 H        16        0    0.0000
    210 H         207.6641  138.4060  156.3551 H        16        0    0.0000
    211 H         206.9295  138.8724  157.8883 H        16        0    0.0000
    212 H         204.8445  138.2973  157.2600 H        16        0    0.0000
    213 H         205.3726  137.3963  154.4801 H        16        0    0.0000
    214 H         206.2115  138.8913  154.8793 H        16        0    0.0000
    215 H         204.3325  135.9848  156.9277 H        16        0    0.0000
    216 H         205.7637  135.7199  155.9259 H        16        0    0.0000
    217 H         206.5298  134.8521  157.9933 H        16        0    0.0000
    218 H         205.3968  137.2995  159.4852 H        16        0    0.0000
    219 H         206.2683  135.9431  160.1847 H        16        0    0.0000
    220 C         204.7794  133.9084  156.1639 C.3      17        0    0.0000
    221 C         204.4250  135.1043  157.0515 C.3      17        0    0.0000
    222 C         203.9442  134.5218  158.3871 C.3      17        0    0.0000
    223 C         204.2568  135.4426  159.5699 C.3      17        0    0.0000
    224 C         204.6367  133.1560  158.4408 C.3      17        0    0.0000
    225 C         204.4978  132.6531  157.0000 C.3      17        0    0.0000
    226 C         205.4273  131.4916  156.6373 C.3      17        0    0.0000
    227 H         204.1893  133.9061  155.2411 H        17        0    0.0000
    228 H         205.8353  133.9690  155.8741 H        17        0    0.0000
    229 H         203.6496  135.7273  156.5929 H        17        0    0.0000
    230 H         205.3119  135.7353  157.1850 H        17        0    0.0000
    231 H         202.8581  134.3620  158.3200 H        17        0    0.0000
    232 H         204.3371  134.8427  160.4843 H        17        0    0.0000
    233 H         203.4351  136.1510  159.7278 H        17        0    0.0000
    234 H         204.1566  132.4819  159.1573 H        17        0    0.0000
    235 H         205.6925  133.2615  158.7201 H        17        0    0.0000
    236 H         203.4523  132.3564  156.8313 H        17        0    0.0000
    237 H         206.2784  131.4558  157.3274 H        17        0    0.0000
    238 H         205.8399  131.6577  155.6349 H        17        0    0.0000
    239 C         202.6688  128.4591  154.0214 C.3      18        0    0.0000
    240 C         203.8553  129.3770  154.3258 C.3      18        0    0.0000
    241 C         203.5307  130.0911  155.6502 C.3      18        0    0.0000
    242 C         204.6942  130.1222  156.6490 C.3      18        0    0.0000
    243 C         202.3110  129.3435  156.1983 C.3      18        0    0.0000
    244 C         201.5353  128.9045  154.9517 C.3      18        0    0.0000
    245 C         200.6792  130.0412  154.3618 C.3      18        0    0.0000
    246 H         202.4020  128.4766  152.9604 H        18        0    0.0000
    247 H         202.9495  127.4264  154.2653 H        18        0    0.0000
    248 H         204.7798  128.7911  154.3736 H        18        0    0.0000
    249 H         203.9810  130.1158  153.5258 H        18        0    0.0000
    250 H         203.2244  131.1217  155.4203 H        18        0    0.0000
    251 H         204.3097  129.9419  157.6600 H        18        0    0.0000
    252 H         205.4067  129.3180  156.4320 H        18        0    0.0000
    253 H         201.7153  129.9686  156.8715 H        18        0    0.0000
    254 H         202.6282  128.4571  156.7628 H        18        0    0.0000
    255 H         200.8897  128.0528  155.2011 H        18        0    0.0000
    256 H         201.2297  130.5921  153.5912 H        18        0    0.0000
    257 H         200.4335  130.7598  155.1528 H        18        0    0.0000
    258 C         196.5490  129.4837  156.1991 C.3      19        0    0.0000
    259 C         198.0404  129.7435  155.9731 C.3      19        0    0.0000
    260 C         198.4784  128.8207  154.8218 C.3      19        0    0.0000
    261 C         199.3464  129.5082  153.7606 C.3      19        0    0.0000
    262 C         197.1659  128.2829  154.2428 C.3      19        0    0.0000
    263 C         196.2230  128.1886  155.4473 C.3      19        0    0.0000
    264 C         196.4693  126.9218  156.2885 C.3      19        0    0.0000
    265 H         196.2978  129.4516  157.2635 H        19        0    0.0000
    266 H         195.9759  130.3095  155.7583 H        19        0    0.0000
    267 H         198.2074  130.8042  155.7555 H        19        0    0.0000
    268 H         198.6106  129.5051  156.8786 H        19        0    0.0000
    269 H         199.0344  127.9745  155.2504 H        19        0    0.0000
    270 H         199.5852  128.7910  152.9663 H        19        0    0.0000
    271 H         198.7962  130.3314  153.2905 H        19        0    0.0000
    272 H         197.3045  127.3228  153.7352 H        19        0    0.0000
    273 H         196.7539  128.9889  153.5101 H        19        0    0.0000
    274 H         195.1817  128.2004  155.1011 H        19        0    0.0000
    275 H         196.2699  127.1067  157.3498 H        19        0    0.0000
    276 H         197.5235  126.6311  156.2083 H        19        0    0.0000
    277 C         195.5991  125.7270  155.8017 C.3      20        0    0.0000
    278 C         196.3292  124.7719  154.8466 C.3      20        0    0.0000
    279 H         195.3109  125.1599  156.6960 H        20        0    0.0000
    280 H         194.6706  126.1034  155.3566 H        20        0    0.0000
    281 H         197.3584  125.1017  154.6623 H        20        0    0.0000
    282 H         196.3967  123.7901  155.3328 H        20        0    0.0000
    283 C         192.7248  122.2987  153.0575 C.3      21        0    0.0000
    284 C         193.8453  122.7602  153.9882 C.3      21        0    0.0000
    285 C         194.1010  124.2433  153.6689 C.3      21        0    0.0000
    286 C         195.5924  124.5506  153.4803 C.3      21        0    0.0000
    287 C         193.2410  124.5302  152.4284 C.3      21        0    0.0000
    288 C         192.0481  123.5730  152.5459 C.3      21        0    0.0000
    289 C         190.9436  124.0563  153.5035 C.3      21        0    0.0000
    290 H         193.1670  121.7594  152.2101 H        21        0    0.0000
    291 H         192.0346  121.6097  153.5545 H        21        0    0.0000
    292 H         194.7351  122.1355  153.8537 H        21        0    0.0000
    293 H         193.5350  122.6576  155.0347 H        21        0    0.0000
    294 H         193.7159  124.8400  154.5079 H        21        0    0.0000
    295 H         195.7218  125.4338  152.8440 H        21        0    0.0000
    296 H         196.0718  123.7127  152.9600 H        21        0    0.0000
    297 H         192.9438  125.5818  152.3693 H        21        0    0.0000
    298 H         193.8010  124.2951  151.5139 H        21        0    0.0000
    299 H         191.6125  123.3881  151.5557 H        21        0    0.0000
    300 H         190.9615  125.1459  153.6132 H        21        0    0.0000
    301 H         191.1228  123.6381  154.5015 H        21        0    0.0000
    302 C         189.3192  121.3380  150.1602 C.3      22        0    0.0000
    303 C         190.2458  122.1128  151.0959 C.3      22        0    0.0000
    304 C         189.5366  122.1840  152.4594 C.3      22        0    0.0000
    305 C         189.5299  123.6043  153.0399 C.3      22        0    0.0000
    306 C         188.1364  121.6060  152.2026 C.3      22        0    0.0000
    307 C         188.3293  120.5973  151.0631 C.3      22        0    0.0000
    308 C         188.8806  119.2327  151.5153 C.3      22        0    0.0000
    309 H         188.7709  122.0520  149.5325 H        22        0    0.0000
    310 H         189.8734  120.6757  149.4878 H        22        0    0.0000
    311 H         190.4696  123.1011  150.6796 H        22        0    0.0000
    312 H         191.2009  121.5857  151.2053 H        22        0    0.0000
    313 H         190.0695  121.5169  153.1516 H        22        0    0.0000
    314 H         188.8279  123.6693  153.8793 H        22        0    0.0000
    315 H         189.1751  124.3061  152.2756 H        22        0    0.0000
    316 H         187.7053  121.1590  153.1037 H        22        0    0.0000
    317 H         187.4528  122.3976  151.8691 H        22        0    0.0000
    318 H         187.3832  120.4456  150.5280 H        22        0    0.0000
    319 H         189.5605  119.3413  152.3671 H        22        0    0.0000
    320 H         189.4676  118.7925  150.7001 H        22        0    0.0000
    321 C         186.0287  118.9769  155.0878 C.3      23        0    0.0000
    322 C         187.1411  119.3772  154.1156 C.3      23        0    0.0000
    323 C         187.5845  118.0887  153.3997 C.3      23        0    0.0000
    324 C         187.7444  118.2363  151.8816 C.3      23        0    0.0000
    325 C         186.5175  117.0559  153.7764 C.3      23        0    0.0000
    326 C         186.0830  117.4489  155.1924 C.3      23        0    0.0000
    327 C         187.0663  116.9503  156.2683 C.3      23        0    0.0000
    328 H         186.1248  119.4891  156.0499 H        23        0    0.0000
    329 H         185.0623  119.2741  154.6605 H        23        0    0.0000
    330 H         186.7762  120.1443  153.4238 H        23        0    0.0000
    331 H         187.9876  119.8096  154.6616 H        23        0    0.0000
    332 H         188.5413  117.7648  153.8338 H        23        0    0.0000
    333 H         187.9841  117.2594  151.4450 H        23        0    0.0000
    334 H         186.8023  118.5647  151.4275 H        23        0    0.0000
    335 H         186.8995  116.0315  153.7177 H        23        0    0.0000
    336 H         185.6586  117.1288  153.0967 H        23        0    0.0000
    337 H         185.0832  117.0449  155.3960 H        23        0    0.0000
    338 H         186.6486  117.0734  157.2737 H        23        0    0.0000
    339 H         187.9836  117.5497  156.2288 H        23        0    0.0000
    340 C         186.7663  113.1781  153.0888 C.3      24        0    0.0000
    341 C         187.2467  113.3800  154.5191 C.3      24        0    0.0000
    342 C         186.7842  114.8057  154.8370 C.3      24        0    0.0000
    343 C         187.4529  115.4586  156.0506 C.3      24        0    0.0000
    344 C         186.9140  115.5796  153.5105 C.3      24        0    0.0000
    345 C         187.1178  114.5106  152.4190 C.3      24        0    0.0000
    346 C         186.4117  114.7835  151.0874 C.3      24        0    0.0000
    347 H         187.2639  112.3313  152.6061 H        24        0    0.0000
    348 H         185.6876  112.9865  153.0844 H        24        0    0.0000
    349 H         186.8128  112.6446  155.2038 H        24        0    0.0000
    350 H         188.3371  113.2815  154.5606 H        24        0    0.0000
    351 H         185.7093  114.7487  155.0656 H        24        0    0.0000
    352 H         187.1910  114.8917  156.9518 H        24        0    0.0000
    353 H         188.5416  115.3895  155.9402 H        24        0    0.0000
    354 H         187.7603  116.2749  153.5043 H        24        0    0.0000
    355 H         186.0155  116.1853  153.3506 H        24        0    0.0000
    356 H         188.1961  114.4833  152.2010 H        24        0    0.0000
    357 H         186.3080  115.8667  150.9526 H        24        0    0.0000
    358 H         187.0429  114.4229  150.2666 H        24        0    0.0000
    359 C         186.1067  110.5253  150.7350 C.3      25        0    0.0000
    360 C         186.4045  112.0089  150.8887 C.3      25        0    0.0000
    361 C         185.0761  112.6663  150.5089 C.3      25        0    0.0000
    362 C         185.0043  114.1265  150.9624 C.3      25        0    0.0000
    363 C         184.0175  111.7433  151.1397 C.3      25        0    0.0000
    364 C         184.7046  110.3766  151.3392 C.3      25        0    0.0000
    365 C         183.9063  109.1612  150.8509 C.3      25        0    0.0000
    366 H         186.8436  109.9047  151.2545 H        25        0    0.0000
    367 H         186.1300  110.2552  149.6737 H        25        0    0.0000
    368 H         186.6762  112.2361  151.9268 H        25        0    0.0000
    369 H         187.2258  112.3311  150.2412 H        25        0    0.0000
    370 H         184.9673  112.6161  149.4157 H        25        0    0.0000
    371 H         184.3941  114.7102  150.2630 H        25        0    0.0000
    372 H         184.5035  114.1791  151.9365 H        25        0    0.0000
    373 H         183.6900  112.1237  152.1153 H        25        0    0.0000
    374 H         183.1262  111.6876  150.5060 H        25        0    0.0000
    375 H         184.8344  110.2462  152.4239 H        25        0    0.0000
    376 H         184.1429  108.9774  149.7962 H        25        0    0.0000
    377 H         182.8363  109.3967  150.8963 H        25        0    0.0000
    378 C         183.7970  106.5538  155.1143 C.3      26        0    0.0000
    379 C         183.1201  106.7855  153.7612 C.3      26        0    0.0000
    380 C         183.7935  108.0214  153.1381 C.3      26        0    0.0000
    381 C         184.1636  107.8568  151.6589 C.3      26        0    0.0000
    382 C         185.0193  108.2746  154.0215 C.3      26        0    0.0000
    383 C         184.5830  107.8328  155.4226 C.3      26        0    0.0000
    384 C         183.7395  108.9037  156.1401 C.3      26        0    0.0000
    385 H         183.0747  106.2816  155.8898 H        26        0    0.0000
    386 H         184.4982  105.7148  155.0194 H        26        0    0.0000
    387 H         183.2135  105.8899  153.1371 H        26        0    0.0000
    388 H         182.0490  106.9747  153.8979 H        26        0    0.0000
    389 H         183.1119  108.8772  153.2468 H        26        0    0.0000
    390 H         185.2266  107.6006  151.5769 H        26        0    0.0000
    391 H         183.6018  107.0276  151.2136 H        26        0    0.0000
    392 H         185.3412  109.3204  153.9864 H        26        0    0.0000
    393 H         185.8636  107.6566  153.6895 H        26        0    0.0000
    394 H         185.4686  107.5998  156.0273 H        26        0    0.0000
    395 H         182.8550  109.1708  155.5513 H        26        0    0.0000
    396 H         184.3336  109.8181  156.2552 H        26        0    0.0000
    397 C         183.2934  108.4348  157.5554 C.3      27        0    0.0000
    398 C         181.8015  108.0859  157.6556 C.3      27        0    0.0000
    399 H         183.8708  107.5304  157.7862 H        27        0    0.0000
    400 H         183.5780  109.1870  158.3005 H        27        0    0.0000
    401 H         181.2062  108.9593  157.9465 H        27        0    0.0000
    402 H         181.4540  107.7875  156.6582 H        27        0    0.0000
    403 C         184.2750  104.4176  157.9208 C.3      28        0    0.0000
    404 C         183.5923  105.7446  157.6263 C.3      28        0    0.0000
    405 C         182.2034  105.5807  158.2564 C.3      28        0    0.0000
    406 C         181.4904  106.8893  158.6200 C.3      28        0    0.0000
    407 C         182.3875  104.5824  159.4180 C.3      28        0    0.0000
    408 C         183.8585  104.1309  159.3649 C.3      28        0    0.0000
    409 C         184.0940  102.6694  159.7541 C.3      28        0    0.0000
    410 H         183.9049  103.6410  157.2404 H        28        0    0.0000
    411 H         185.3616  104.4822  157.8085 H        28        0    0.0000
    412 H         184.1615  106.5592  158.0870 H        28        0    0.0000
    413 H         183.5329  105.9438  156.5517 H        28        0    0.0000
    414 H         181.5691  105.0798  157.5099 H        28        0    0.0000
    415 H         180.4078  106.7151  158.6250 H        28        0    0.0000
    416 H         181.7670  107.1761  159.6415 H        28        0    0.0000
    417 H         181.7066  103.7347  159.2712 H        28        0    0.0000
    418 H         182.1505  105.0134  160.3964 H        28        0    0.0000
    419 H         184.4424  104.7856  160.0281 H        28        0    0.0000
    420 H         184.0825  102.0335  158.8609 H        28        0    0.0000
    421 H         185.0912  102.5691  160.1989 H        28        0    0.0000
    422 C         181.6038  105.2513  162.4231 C.3      29        0    0.0000
    423 C         182.6768  104.5790  161.5780 C.3      29        0    0.0000
    424 C         182.0590  103.2121  161.2654 C.3      29        0    0.0000
    425 C         183.0398  102.1453  160.7693 C.3      29        0    0.0000
    426 C         181.2481  102.8366  162.5211 C.3      29        0    0.0000
    427 C         181.1518  104.1261  163.3598 C.3      29        0    0.0000
    428 C         179.8118  104.3564  164.0653 C.3      29        0    0.0000
    429 H         181.9964  106.1118  162.9736 H        29        0    0.0000
    430 H         180.7907  105.6022  161.7781 H        29        0    0.0000
    431 H         182.8978  105.1479  160.6696 H        29        0    0.0000
    432 H         183.6024  104.4902  162.1574 H        29        0    0.0000
    433 H         181.3315  103.3689  160.4547 H        29        0    0.0000
    434 H         183.5640  101.7131  161.6298 H        29        0    0.0000
    435 H         182.4758  101.3296  160.3017 H        29        0    0.0000
    436 H         181.7234  102.0484  163.1149 H        29        0    0.0000
    437 H         180.2682  102.4493  162.2217 H        29        0    0.0000
    438 H         181.9119  104.0455  164.1515 H        29        0    0.0000
    439 H         179.6776  105.4310  164.2368 H        29        0    0.0000
    440 H         178.9984  104.0392  163.4020 H        29        0    0.0000
    441 C         181.1717  105.4215  168.3746 C.3      30        0    0.0000
    442 C         180.2711  105.3755  167.1496 C.3      30        0    0.0000
    443 C         180.6941  104.0757  166.4620 C.3      30        0    0.0000
    444 C         179.6679  103.6106  165.4259 C.3      30        0    0.0000
    445 C         180.9171  103.0989  167.6310 C.3      30        0    0.0000
    446 C         181.1670  103.9724  168.8777 C.3      30        0    0.0000
    447 C         182.3771  103.5711  169.7307 C.3      30        0    0.0000
    448 H         180.7971  106.1181  169.1311 H        30        0    0.0000
    449 H         182.1732  105.7534  168.0803 H        30        0    0.0000
    450 H         179.2180  105.3378  167.4538 H        30        0    0.0000
    451 H         180.4108  106.2490  166.5055 H        30        0    0.0000
    452 H         181.6619  104.2466  165.9683 H        30        0    0.0000
    453 H         179.7626  102.5312  165.2578 H        30        0    0.0000
    454 H         178.6571  103.7808  165.8154 H        30        0    0.0000
    455 H         180.0298  102.4770  167.8032 H        30        0    0.0000
    456 H         181.7448  102.4162  167.4118 H        30        0    0.0000
    457 H         180.2827  103.8591  169.5224 H        30        0    0.0000
    458 H         182.5616  104.3503  170.4797 H        30        0    0.0000
    459 H         183.2668  103.5339  169.0907 H        30        0    0.0000
    460 C         180.0249   99.3704  169.2374 C.3      31        0    0.0000
    461 C         181.1789  100.3322  168.9990 C.3      31        0    0.0000
    462 C         180.9699  101.4143  170.0660 C.3      31        0    0.0000
    463 C         182.2272  102.2024  170.4549 C.3      31        0    0.0000
    464 C         180.2400  100.7154  171.2315 C.3      31        0    0.0000
    465 C         179.9688   99.2739  170.7634 C.3      31        0    0.0000
    466 C         178.6474   98.6788  171.2559 C.3      31        0    0.0000
    467 H         179.0941   99.7863  168.8326 H        31        0    0.0000
    468 H         180.1986   98.3977  168.7673 H        31        0    0.0000
    469 H         182.1292   99.8029  169.1279 H        31        0    0.0000
    470 H         181.1619  100.7477  167.9866 H        31        0    0.0000
    471 H         180.2631  102.1461  169.6472 H        31        0    0.0000
    472 H         182.2167  102.3775  171.5373 H        31        0    0.0000
    473 H         183.1126  101.5910  170.2443 H        31        0    0.0000
    474 H         179.3035  101.2486  171.4371 H        31        0    0.0000
    475 H         180.8167  100.7174  172.1625 H        31        0    0.0000
    476 H         180.8035   98.6414  171.0992 H        31        0    0.0000
    477 H         177.8151   99.0490  170.6456 H        31        0    0.0000
    478 H         178.6707   97.5899  171.1287 H        31        0    0.0000
    479 C         178.3689   99.0006  172.7510 C.3      32        0    0.0000
    480 C         178.3845   97.7690  173.6677 C.3      32        0    0.0000
    481 H         179.1636   99.6814  173.0819 H        32        0    0.0000
    482 H         177.4259   99.5527  172.8406 H        32        0    0.0000
    483 H         177.6219   97.8456  174.4516 H        32        0    0.0000
    484 H         178.1253   96.8909  173.0625 H        32        0    0.0000
    485 C         182.1039  100.2758  174.8032 C.3      33        0    0.0000
    486 C         180.7310   99.8446  174.2895 C.3      33        0    0.0000
    487 C         180.2893   98.6538  175.1577 C.3      33        0    0.0000
    488 C         179.7814   97.4753  174.3164 C.3      33        0    0.0000
    489 C         181.5161   98.3234  176.0217 C.3      33        0    0.0000
    490 C         182.2457   99.6612  176.1981 C.3      33        0    0.0000
    491 C         181.6434  100.5694  177.2857 C.3      33        0    0.0000
    492 H         182.8763   99.8586  174.1445 H        33        0    0.0000
    493 H         182.2240  101.3637  174.7935 H        33        0    0.0000
    494 H         180.7821   99.5992  173.2231 H        33        0    0.0000
    495 H         180.0115  100.6649  174.3970 H        33        0    0.0000
    496 H         179.4796   98.9987  175.8161 H        33        0    0.0000
    497 H         179.7205   96.5683  174.9290 H        33        0    0.0000
    498 H         180.4993   97.2675  173.5138 H        33        0    0.0000
    499 H         181.2357   97.8584  176.9718 H        33        0    0.0000
    500 H         182.1756   97.6218  175.4944 H        33        0    0.0000
    501 H         183.3065   99.4872  176.4192 H        33        0    0.0000
    502 H         180.5671  100.7075  177.1369 H        33        0    0.0000
    503 H         182.0991  101.5647  177.2177 H        33        0    0.0000
    504 C         184.1856   97.1487  177.8273 C.3      34        0    0.0000
    505 C         183.3624   98.3706  177.4493 C.3      34        0    0.0000
    506 C         182.5211   98.6182  178.7031 C.3      34        0    0.0000
    507 C         181.9034  100.0186  178.7163 C.3      34        0    0.0000
    508 C         183.4962   98.3336  179.8602 C.3      34        0    0.0000
    509 C         184.6030   97.4317  179.2760 C.3      34        0    0.0000
    510 C         184.9519   96.1932  180.1111 C.3      34        0    0.0000
    511 H         185.0514   97.0202  177.1701 H        34        0    0.0000
    512 H         183.5656   96.2495  177.7440 H        34        0    0.0000
    513 H         184.0210   99.2223  177.2399 H        34        0    0.0000
    514 H         182.7438   98.1901  176.5648 H        34        0    0.0000
    515 H         181.7211   97.8643  178.7354 H        34        0    0.0000
    516 H         180.9613  100.0111  179.2772 H        34        0    0.0000
    517 H         182.5766  100.7066  179.2414 H        34        0    0.0000
    518 H         183.9507   99.2600  180.2331 H        34        0    0.0000
    519 H         182.9707   97.8761  180.7050 H        34        0    0.0000
    520 H         185.5163   98.0436  179.2334 H        34        0    0.0000
    521 H         186.0292   96.0032  180.0371 H        34        0    0.0000
    522 H         184.4487   95.3198  179.6794 H        34        0    0.0000
    523 C         181.6823   98.7016  182.0262 C.3      35        0    0.0000
    524 C         182.6032   97.8578  181.1409 C.3      35        0    0.0000
    525 C         183.8898   97.6353  181.9468 C.3      35        0    0.0000
    526 C         184.5619   96.3005  181.6133 C.3      35        0    0.0000
    527 C         183.4186   97.7677  183.3988 C.3      35        0    0.0000
    528 C         182.4507   98.9537  183.3301 C.3      35        0    0.0000
    529 C         181.5194   99.0880  184.5380 C.3      35        0    0.0000
    530 H         181.4140   99.6455  181.5396 H        35        0    0.0000
    531 H         180.7500   98.1540  182.2094 H        35        0    0.0000
    532 H         182.8165   98.3606  180.1915 H        35        0    0.0000
    533 H         182.1100   96.9080  180.9019 H        35        0    0.0000
    534 H         184.5802   98.4622  181.7253 H        35        0    0.0000
    535 H         183.8761   95.4796  181.8550 H        35        0    0.0000
    536 H         185.4550   96.1591  182.2332 H        35        0    0.0000
    537 H         184.2512   97.9585  184.0832 H        35        0    0.0000
    538 H         182.9020   96.8577  183.7288 H        35        0    0.0000
    539 H         183.0357   99.8773  183.2099 H        35        0    0.0000
    540 H         181.4383   98.1296  185.0641 H        35        0    0.0000
    541 H         180.5112   99.3443  184.1909 H        35        0    0.0000
    542 C         179.2468  102.6149  186.5271 C.3      36        0    0.0000
    543 C         179.9550  101.7810  185.4686 C.3      36        0    0.0000
    544 C         180.8603  100.8681  186.3020 C.3      36        0    0.0000
    545 C         181.9935  100.1845  185.5308 C.3      36        0    0.0000
    546 C         181.2980  101.7221  187.5080 C.3      36        0    0.0000
    547 C         180.3762  102.9573  187.5043 C.3      36        0    0.0000
    548 C         179.9258  103.4492  188.8833 C.3      36        0    0.0000
    549 H         178.7861  103.5114  186.1007 H        36        0    0.0000
    550 H         178.4583  102.0197  187.0007 H        36        0    0.0000
    551 H         179.2485  101.2118  184.8564 H        36        0    0.0000
    552 H         180.5294  102.4363  184.8046 H        36        0    0.0000
    553 H         180.2231  100.0636  186.6992 H        36        0    0.0000
    554 H         182.5569  100.9433  184.9749 H        36        0    0.0000
    555 H         182.6925   99.7340  186.2455 H        36        0    0.0000
    556 H         182.3427  102.0449  187.4443 H        36        0    0.0000
    557 H         181.2131  101.1302  188.4257 H        36        0    0.0000
    558 H         180.9512  103.7793  187.0518 H        36        0    0.0000
    559 H         179.7041  104.5215  188.8259 H        36        0    0.0000
    560 H         178.9892  102.9479  189.1544 H        36        0    0.0000
    561 C         184.3897  103.7261  188.6801 C.3      37        0    0.0000
    562 C         182.9042  103.5599  188.3508 C.3      37        0    0.0000
    563 C         182.2999  102.6916  189.4689 C.3      37        0    0.0000
    564 C         180.9666  103.2133  190.0187 C.3      37        0    0.0000
    565 C         183.3920  102.6365  190.5421 C.3      37        0    0.0000
    566 C         184.7072  102.6827  189.7569 C.3      37        0    0.0000
    567 C         185.0922  101.3095  189.1744 C.3      37        0    0.0000
    568 H         185.0166  103.6440  187.7872 H        37        0    0.0000
    569 H         184.5495  104.7300  189.0940 H        37        0    0.0000
    570 H         182.4261  104.5422  188.2693 H        37        0    0.0000
    571 H         182.7817  103.0589  187.3834 H        37        0    0.0000
    572 H         182.1557  101.6749  189.0763 H        37        0    0.0000
    573 H         180.5532  102.4817  190.7232 H        37        0    0.0000
    574 H         181.1209  104.1423  190.5795 H        37        0    0.0000
    575 H         183.3037  101.7452  191.1717 H        37        0    0.0000
    576 H         183.3269  103.5139  191.1986 H        37        0    0.0000
    577 H         185.5130  103.0415  190.4097 H        37        0    0.0000
    578 H         186.0923  101.3354  188.7277 H        37        0    0.0000
    579 H         184.3921  101.0449  188.3730 H        37        0    0.0000
    580 C         184.9071  102.2669  193.4184 C.3      38        0    0.0000
    581 C         185.7037  101.4301  192.4290 C.3      38        0    0.0000
    582 C         184.6226  100.6722  191.6483 C.3      38        0    0.0000
    583 C         185.0391  100.1891  190.2532 C.3      38        0    0.0000
    584 C         183.3698  101.5713  191.6907 C.3      38        0    0.0000
    585 C         183.7393  102.7783  192.5723 C.3      38        0    0.0000
    586 C         182.5942  103.3160  193.4341 C.3      38        0    0.0000
    587 H         184.5520  101.6406  194.2458 H        38        0    0.0000
    588 H         185.5031  103.0832  193.8376 H        38        0    0.0000
    589 H         186.2937  102.0897  191.7834 H        38        0    0.0000
    590 H         186.3962  100.7494  192.9342 H        38        0    0.0000
    591 H         184.3805   99.7695  192.2289 H        38        0    0.0000
    592 H         186.0276   99.7192  190.3199 H        38        0    0.0000
    593 H         184.3427   99.4100  189.9212 H        38        0    0.0000
    594 H         182.5374  101.0032  192.1243 H        38        0    0.0000
    595 H         183.0448  101.9023  190.6987 H        38        0    0.0000
    596 H         184.1131  103.5794  191.9180 H        38        0    0.0000
    597 H         181.8805  103.8693  192.8123 H        38        0    0.0000
    598 H         182.0440  102.4744  193.8716 H        38        0    0.0000
    599 C         182.0294  102.6135  197.8503 C.3      39        0    0.0000
    600 C         181.8746  102.7820  196.3452 C.3      39        0    0.0000
    601 C         183.1351  103.5621  195.9574 C.3      39        0    0.0000
    602 C         183.0938  104.2366  194.5828 C.3      39        0    0.0000
    603 C         183.4154  104.4986  197.1489 C.3      39        0    0.0000
    604 C         182.5236  103.9925  198.2995 C.3      39        0    0.0000
    605 C         183.1539  104.0426  199.6947 C.3      39        0    0.0000
    606 H         181.0850  102.3387  198.3301 H        39        0    0.0000
    607 H         182.7602  101.8250  198.0611 H        39        0    0.0000
    608 H         181.8126  101.8184  195.8302 H        39        0    0.0000
    609 H         180.9593  103.3435  196.1280 H        39        0    0.0000
    610 H         183.9618  102.8364  195.9246 H        39        0    0.0000
    611 H         182.4437  105.1180  194.6358 H        39        0    0.0000
    612 H         184.0973  104.6001  194.3316 H        39        0    0.0000
    613 H         183.1757  105.5454  196.9333 H        39        0    0.0000
    614 H         184.4827  104.4703  197.3935 H        39        0    0.0000
    615 H         181.6433  104.6522  198.3305 H        39        0    0.0000
    616 H         182.3898  103.7971  200.4418 H        39        0    0.0000
    617 H         183.9258  103.2674  199.7672 H        39        0    0.0000
    618 C         181.2587  108.1006  200.4732 C.3      40        0    0.0000
    619 C         181.5200  106.6450  200.0784 C.3      40        0    0.0000
    620 C         182.9563  106.5895  199.5277 C.3      40        0    0.0000
    621 C         183.7891  105.4174  200.0614 C.3      40        0    0.0000
    622 C         183.5593  107.9489  199.8956 C.3      40        0    0.0000
    623 C         182.3795  108.9247  199.8302 C.3      40        0    0.0000
    624 C         182.0583  109.3624  198.3885 C.3      40        0    0.0000
    625 H         180.2531  108.4254  200.1894 H        40        0    0.0000
    626 H         181.3287  108.1884  201.5650 H        40        0    0.0000
    627 H         181.3701  105.9894  200.9432 H        40        0    0.0000
    628 H         180.8121  106.3268  199.3041 H        40        0    0.0000
    629 H         182.9031  106.5251  198.4314 H        40        0    0.0000
    630 H         184.7963  105.4615  199.6301 H        40        0    0.0000
    631 H         183.9055  105.4941  201.1486 H        40        0    0.0000
    632 H         184.3797  108.2282  199.2266 H        40        0    0.0000
    633 H         183.9585  107.9257  200.9179 H        40        0    0.0000
    634 H         182.5999  109.8100  200.4401 H        40        0    0.0000
    635 H         181.0006  109.6274  198.2817 H        40        0    0.0000
    636 H         182.2483  108.5273  197.7038 H        40        0    0.0000
    637 C         186.2884  112.0176  198.6033 C.3      41        0    0.0000
    638 C         185.4774  110.9993  197.7983 C.3      41        0    0.0000
    639 C         184.2821  110.5935  198.6791 C.3      41        0    0.0000
    640 C         182.9382  110.5654  197.9407 C.3      41        0    0.0000
    641 C         184.2946  111.6050  199.8296 C.3      41        0    0.0000
    642 C         185.7775  111.9256  200.0453 C.3      41        0    0.0000
    643 C         186.4975  110.8456  200.8749 C.3      41        0    0.0000
    644 H         187.3652  111.8503  198.5048 H        41        0    0.0000
    645 H         186.0820  113.0221  198.2120 H        41        0    0.0000
    646 H         185.1719  111.4358  196.8410 H        41        0    0.0000
    647 H         186.0888  110.1180  197.5719 H        41        0    0.0000
    648 H         184.4848  109.5975  199.0981 H        41        0    0.0000
    649 H         182.3908  111.4928  198.1474 H        41        0    0.0000
    650 H         183.0975  110.5254  196.8570 H        41        0    0.0000
    651 H         183.8099  111.2100  200.7283 H        41        0    0.0000
    652 H         183.7610  112.5196  199.5400 H        41        0    0.0000
    653 H         185.8749  112.8968  200.5470 H        41        0    0.0000
    654 H         187.5857  110.9456  200.7955 H        41        0    0.0000
    655 H         186.2394  109.8542  200.4840 H        41        0    0.0000
    656 C         183.6296  113.3394  201.1546 C.3      42        0    0.0000
    657 C         183.9586  111.8585  201.3367 C.3      42        0    0.0000
    658 C         184.8298  111.7525  202.6003 C.3      42        0    0.0000
    659 C         186.0837  110.8976  202.3742 C.3      42        0    0.0000
    660 C         185.1269  113.2077  202.9938 C.3      42        0    0.0000
    661 C         183.9107  114.0043  202.5045 C.3      42        0    0.0000
    662 C         182.6909  113.9319  203.4413 C.3      42        0    0.0000
    663 H         184.3020  113.7617  200.3970 H        42        0    0.0000
    664 H         182.6057  113.4929  200.7995 H        42        0    0.0000
    665 H         184.4543  111.4646  200.4427 H        42        0    0.0000
    666 H         183.0377  111.2800  201.4755 H        42        0    0.0000
    667 H         184.2211  111.2928  203.3918 H        42        0    0.0000
    668 H         185.9234  109.8798  202.7483 H        42        0    0.0000
    669 H         186.9174  111.3185  202.9492 H        42        0    0.0000
    670 H         185.3063  113.3140  204.0681 H        42        0    0.0000
    671 H         186.0243  113.5673  202.4736 H        42        0    0.0000
    672 H         184.1849  115.0556  202.3488 H        42        0    0.0000
    673 H         182.9922  113.7027  204.4691 H        42        0    0.0000
    674 H         182.0354  113.1143  203.1175 H        42        0    0.0000
    675 C         181.8624  115.2476  203.4241 C.3      43        0    0.0000
    676 C         180.3791  115.0554  203.7707 C.3      43        0    0.0000
    677 H         182.3052  115.9107  204.1783 H        43        0    0.0000
    678 H         181.9843  115.7483  202.4564 H        43        0    0.0000
    679 H         179.9750  114.1487  203.3054 H        43        0    0.0000
    680 H         180.2988  114.9135  204.8561 H        43        0    0.0000
    681 C         181.0863  119.7010  203.8224 C.3      44        0    0.0000
    682 C         180.7680  118.3142  204.3636 C.3      44        0    0.0000
    683 C         180.2509  117.5745  203.1254 C.3      44        0    0.0000
    684 C         179.4754  116.2840  203.4067 C.3      44        0    0.0000
    685 C         179.4962  118.6376  202.3034 C.3      44        0    0.0000
    686 C         179.8877  119.9971  202.9149 C.3      44        0    0.0000
    687 C         180.0875  121.1387  201.9134 C.3      44        0    0.0000
    688 H         181.1876  120.4393  204.6238 H        44        0    0.0000
    689 H         182.0287  119.6730  203.2644 H        44        0    0.0000
    690 H         181.6508  117.8304  204.7929 H        44        0    0.0000
    691 H         180.0060  118.3888  205.1472 H        44        0    0.0000
    692 H         181.1334  117.2862  202.5345 H        44        0    0.0000
    693 H         178.7728  116.4606  204.2298 H        44        0    0.0000
    694 H         178.8724  116.0292  202.5271 H        44        0    0.0000
    695 H         178.4084  118.5163  202.3471 H        44        0    0.0000
    696 H         179.7745  118.5496  201.2477 H        44        0    0.0000
    697 H         179.0577  120.2990  203.5713 H        44        0    0.0000
    698 H         180.5726  121.9803  202.4219 H        44        0    0.0000
    699 H         180.7748  120.8081  201.1256 H        44        0    0.0000
    700 C         176.4537  124.0388  203.0177 C.3      45        0    0.0000
    701 C         177.8636  123.5529  202.6716 C.3      45        0    0.0000
    702 C         177.7264  122.0751  202.2824 C.3      45        0    0.0000
    703 C         178.7721  121.6457  201.2496 C.3      45        0    0.0000
    704 C         176.2751  121.9751  201.8012 C.3      45        0    0.0000
    705 C         175.5233  122.8344  202.8231 C.3      45        0    0.0000
    706 C         174.1141  123.2511  202.3928 C.3      45        0    0.0000
    707 H         176.4007  124.4142  204.0453 H        45        0    0.0000
    708 H         176.1805  124.8682  202.3544 H        45        0    0.0000
    709 H         178.5478  123.6741  203.5184 H        45        0    0.0000
    710 H         178.2628  124.1506  201.8434 H        45        0    0.0000
    711 H         177.8363  121.4692  203.1936 H        45        0    0.0000
    712 H         179.0137  122.4980  200.6032 H        45        0    0.0000
    713 H         178.3654  120.8618  200.6000 H        45        0    0.0000
    714 H         175.9169  120.9407  201.7943 H        45        0    0.0000
    715 H         176.1677  122.3844  200.7889 H        45        0    0.0000
    716 H         175.4718  122.2841  203.7739 H        45        0    0.0000
    717 H         173.4838  122.3661  202.2467 H        45        0    0.0000
    718 H         174.1680  123.7640  201.4250 H        45        0    0.0000
    719 C         170.4848  126.3974  202.5234 C.3      46        0    0.0000
    720 C         171.6154  126.0419  203.4769 C.3      46        0    0.0000
    721 C         172.0116  124.6228  203.0500 C.3      46        0    0.0000
    722 C         173.4398  124.2024  203.4192 C.3      46        0    0.0000
    723 C         171.6591  124.5244  201.5514 C.3      46        0    0.0000
    724 C         170.9859  125.8589  201.1818 C.3      46        0    0.0000
    725 C         169.8615  125.7444  200.1496 C.3      46        0    0.0000
    726 H         169.5582  125.8967  202.8297 H        46        0    0.0000
    727 H         170.2981  127.4752  202.4931 H        46        0    0.0000
    728 H         172.4371  126.7554  203.3525 H        46        0    0.0000
    729 H         171.2949  126.0797  204.5228 H        46        0    0.0000
    730 H         171.3389  123.9295  203.5765 H        46        0    0.0000
    731 H         174.0593  125.1011  203.5242 H        46        0    0.0000
    732 H         173.4270  123.7135  204.4005 H        46        0    0.0000
    733 H         170.9753  123.6798  201.4004 H        46        0    0.0000
    734 H         172.5321  124.3427  200.9158 H        46        0    0.0000
    735 H         171.7615  126.5415  200.8049 H        46        0    0.0000
    736 H         170.0794  126.3772  199.2811 H        46        0    0.0000
    737 H         169.8107  124.7125  199.7821 H        46        0    0.0000
    738 C         168.9499  129.1049  203.0564 C.3      47        0    0.0000
    739 C         169.5024  127.8700  202.3584 C.3      47        0    0.0000
    740 C         168.4164  127.5457  201.3273 C.3      47        0    0.0000
    741 C         168.4745  126.1352  200.7328 C.3      47        0    0.0000
    742 C         167.0860  127.9264  202.0058 C.3      47        0    0.0000
    743 C         167.4699  128.7566  203.2462 C.3      47        0    0.0000
    744 C         166.5505  129.9414  203.5583 C.3      47        0    0.0000
    745 H         169.4531  129.2953  204.0094 H        47        0    0.0000
    746 H         169.0877  129.9839  202.4172 H        47        0    0.0000
    747 H         170.4710  128.0653  201.8880 H        47        0    0.0000
    748 H         169.6344  127.0617  203.0861 H        47        0    0.0000
    749 H         168.5545  128.2443  200.4883 H        47        0    0.0000
    750 H         168.2006  125.4088  201.5070 H        47        0    0.0000
    751 H         167.7222  126.0492  199.9398 H        47        0    0.0000
    752 H         166.5013  127.0537  202.3161 H        47        0    0.0000
    753 H         166.4604  128.4818  201.2987 H        47        0    0.0000
    754 H         167.4102  128.0786  204.1110 H        47        0    0.0000
    755 H         167.1316  130.7222  204.0633 H        47        0    0.0000
    756 H         166.1920  130.3746  202.6170 H        47        0    0.0000
    757 C         164.4806  132.4170  206.8119 C.3      48        0    0.0000
    758 C         164.7252  130.9350  206.5724 C.3      48        0    0.0000
    759 C         164.5997  130.7923  205.0502 C.3      48        0    0.0000
    760 C         165.3201  129.5813  204.4441 C.3      48        0    0.0000
    761 C         165.0040  132.1625  204.4682 C.3      48        0    0.0000
    762 C         165.2621  133.0812  205.6765 C.3      48        0    0.0000
    763 C         164.8511  134.5411  205.4700 C.3      48        0    0.0000
    764 H         163.4094  132.6416  206.7395 H        48        0    0.0000
    765 H         164.8318  132.7360  207.7980 H        48        0    0.0000
    766 H         165.7244  130.6661  206.9316 H        48        0    0.0000
    767 H         163.9996  130.3102  207.1027 H        48        0    0.0000
    768 H         163.5305  130.6599  204.8271 H        48        0    0.0000
    769 H         165.6526  128.9225  205.2552 H        48        0    0.0000
    770 H         164.6073  129.0043  203.8431 H        48        0    0.0000
    771 H         164.1826  132.5433  203.8485 H        48        0    0.0000
    772 H         165.8889  132.1118  203.8251 H        48        0    0.0000
    773 H         166.3331  133.0329  205.9215 H        48        0    0.0000
    774 H         165.7102  135.2026  205.6334 H        48        0    0.0000
    775 H         164.5366  134.6852  204.4295 H        48        0    0.0000
    776 C         161.0452  136.2086  204.9023 C.3      49        0    0.0000
    777 C         162.5420  136.4586  204.6989 C.3      49        0    0.0000
    778 C         163.1885  136.3930  206.0869 C.3      49        0    0.0000
    779 C         163.6879  134.9715  206.4071 C.3      49        0    0.0000
    780 C         162.0538  136.8868  206.9934 C.3      49        0    0.0000
    781 C         160.7958  136.2299  206.4195 C.3      49        0    0.0000
    782 C         159.5140  136.9566  206.8422 C.3      49        0    0.0000
    783 H         160.4669  136.9740  204.3723 H        49        0    0.0000
    784 H         160.7565  135.2371  204.4851 H        49        0    0.0000
    785 H         162.6789  137.4648  204.2828 H        49        0    0.0000
    786 H         162.9807  135.7545  203.9845 H        49        0    0.0000
    787 H         164.0368  137.0877  206.1352 H        49        0    0.0000
    788 H         162.8618  134.2618  206.2781 H        49        0    0.0000
    789 H         164.0101  134.8893  207.4507 H        49        0    0.0000
    790 H         161.9795  137.9797  206.9198 H        49        0    0.0000
    791 H         162.1974  136.6389  208.0493 H        49        0    0.0000
    792 H         160.7526  135.1918  206.7778 H        49        0    0.0000
    793 H         158.8899  136.3007  207.4602 H        49        0    0.0000
    794 H         158.9267  137.2070  205.9508 H        49        0    0.0000
    795 C         159.8222  138.2672  207.6217 C.3      50        0    0.0000
    796 C         158.5708  139.0226  208.0915 C.3      50        0    0.0000
    797 H         160.3995  137.9794  208.5096 H        50        0    0.0000
    798 H         160.4739  138.9108  207.0192 H        50        0    0.0000
    799 H         157.9037  139.2506  207.2518 H        50        0    0.0000
    800 H         158.0100  138.3650  208.7680 H        50        0    0.0000
    801 C         162.3082  141.5697  207.8486 C.3      51        0    0.0000
    802 C         161.1222  140.6437  207.6260 C.3      51        0    0.0000
    803 C         160.3707  140.6961  208.9622 C.3      51        0    0.0000
    804 C         158.8815  140.3353  208.8909 C.3      51        0    0.0000
    805 C         160.6883  142.0799  209.5653 C.3      51        0    0.0000
    806 C         161.6867  142.7475  208.6019 C.3      51        0    0.0000
    807 C         162.7445  143.6213  209.2806 C.3      51        0    0.0000
    808 H         163.0717  141.0693  208.4566 H        51        0    0.0000
    809 H         162.7694  141.8786  206.9055 H        51        0    0.0000
    810 H         160.5150  141.0197  206.7954 H        51        0    0.0000
    811 H         161.4394  139.6267  207.3749 H        51        0    0.0000
    812 H         160.8384  139.9511  209.6231 H        51        0    0.0000
    813 H         158.4929  140.2255  209.9103 H        51        0    0.0000
    814 H         158.3328  141.1672  208.4336 H        51        0    0.0000
    815 H         161.1287  141.9427  210.5608 H        51        0    0.0000
    816 H         159.7994  142.7060  209.6957 H        51        0    0.0000
    817 H         161.1166  143.3538  207.8830 H        51        0    0.0000
    818 H         162.8630  143.3256  210.3297 H        51        0    0.0000
    819 H         163.7145  143.4578  208.7962 H        51        0    0.0000
    820 C         164.3739  147.3484  207.8001 C.3      52        0    0.0000
    821 C         164.6765  146.1053  208.6411 C.3      52        0    0.0000
    822 C         163.5702  146.0127  209.6977 C.3      52        0    0.0000
    823 C         162.4010  145.1358  209.2111 C.3      52        0    0.0000
    824 C         163.2100  147.4878  209.9157 C.3      52        0    0.0000
    825 C         163.2339  148.0963  208.5113 C.3      52        0    0.0000
    826 C         163.3945  149.6205  208.5389 C.3      52        0    0.0000
    827 H         165.2788  147.9590  207.7035 H        52        0    0.0000
    828 H         164.0655  147.0631  206.7878 H        52        0    0.0000
    829 H         165.6437  146.2434  209.1407 H        52        0    0.0000
    830 H         164.7608  145.2049  208.0241 H        52        0    0.0000
    831 H         163.9751  145.5843  210.6236 H        52        0    0.0000
    832 H         162.1704  145.3886  208.1691 H        52        0    0.0000
    833 H         161.4910  145.3308  209.7885 H        52        0    0.0000
    834 H         163.9744  147.9588  210.5474 H        52        0    0.0000
    835 H         162.2435  147.6345  210.4070 H        52        0    0.0000
    836 H         162.2892  147.8457  208.0087 H        52        0    0.0000
    837 H         162.4681  150.1075  208.2131 H        52        0    0.0000
    838 H         164.1761  149.9170  207.8295 H        52        0    0.0000
    839 C         163.7832  150.1357  209.9544 C.3      53        0    0.0000
    840 C         164.3555  151.5604  209.9643 C.3      53        0    0.0000
    841 H         164.5549  149.4561  210.3381 H        53        0    0.0000
    842 H         162.9235  150.0465  210.6289 H        53        0    0.0000
    843 H         164.8545  151.7336  209.0022 H        53        0    0.0000
    844 H         163.5591  152.3097  210.0436 H        53        0    0.0000
    845 C         166.5764  155.3840  210.7184 C.3      54        0    0.0000
    846 C         165.5190  154.2984  210.5889 C.3      54        0    0.0000
    847 C         166.3244  153.0113  210.7778 C.3      54        0    0.0000
    848 C         165.4275  151.8086  211.0814 C.3      54        0    0.0000
    849 C         167.3251  153.3660  211.8928 C.3      54        0    0.0000
    850 C         167.4411  154.9042  211.8911 C.3      54        0    0.0000
    851 C         168.8719  155.4565  211.9191 C.3      54        0    0.0000
    852 H         166.1326  156.3656  210.9125 H        54        0    0.0000
    853 H         167.1467  155.4528  209.7857 H        54        0    0.0000
    854 H         164.7617  154.4104  211.3744 H        54        0    0.0000
    855 H         165.0141  154.3321  209.6187 H        54        0    0.0000
    856 H         166.8919  152.8217  209.8550 H        54        0    0.0000
    857 H         166.0358  150.9048  211.2053 H        54        0    0.0000
    858 H         164.9110  151.9733  212.0345 H        54        0    0.0000
    859 H         166.9597  153.0367  212.8735 H        54        0    0.0000
    860 H         168.2835  152.8628  211.7265 H        54        0    0.0000
    861 H         166.9554  155.2563  212.8134 H        54        0    0.0000
    862 H         169.5792  154.6234  211.8301 H        54        0    0.0000
    863 H         169.0549  155.9209  212.8954 H        54        0    0.0000
    864 C         167.7603  160.0110  210.8611 C.3      55        0    0.0000
    865 C         168.5188  158.8902  211.5554 C.3      55        0    0.0000
    866 C         168.1710  157.6512  210.7206 C.3      55        0    0.0000
    867 C         169.1801  156.4991  210.8063 C.3      55        0    0.0000
    868 C         167.8826  158.1741  209.2983 C.3      55        0    0.0000
    869 C         167.9835  159.7084  209.3780 C.3      55        0    0.0000
    870 C         166.9989  160.4622  208.4806 C.3      55        0    0.0000
    871 H         166.6951  159.9650  211.1186 H        55        0    0.0000
    872 H         168.1389  160.9981  211.1437 H        55        0    0.0000
    873 H         169.5917  159.1104  211.5408 H        55        0    0.0000
    874 H         168.2146  158.7774  212.6008 H        55        0    0.0000
    875 H         167.2195  157.2588  211.1093 H        55        0    0.0000
    876 H         169.2121  155.9818  209.8400 H        55        0    0.0000
    877 H         170.1817  156.9120  210.9748 H        55        0    0.0000
    878 H         166.8756  157.8577  208.9991 H        55        0    0.0000
    879 H         168.5748  157.7797  208.5470 H        55        0    0.0000
    880 H         169.0121  159.9985  209.1184 H        55        0    0.0000
    881 H         166.0369  159.9370  208.4498 H        55        0    0.0000
    882 H         166.8031  161.4523  208.9092 H        55        0    0.0000
    883 C         167.5308  160.6423  207.0311 C.3      56        0    0.0000
    884 C         166.8783  159.7037  206.0060 C.3      56        0    0.0000
    885 H         168.6057  160.4222  207.0584 H        56        0    0.0000
    886 H         167.4333  161.6918  206.7295 H        56        0    0.0000
    887 H         165.8586  159.4834  206.3469 H        56        0    0.0000
    888 H         166.7839  160.1867  205.0264 H        56        0    0.0000
    889 C         169.5509  155.9057  207.8842 C.3      57        0    0.0000
    890 C         168.1629  156.3675  207.4335 C.3      57        0    0.0000
    891 C         168.2697  157.8781  207.1577 C.3      57        0    0.0000
    892 C         167.6101  158.3259  205.8476 C.3      57        0    0.0000
    893 C         169.7744  158.1652  207.1813 C.3      57        0    0.0000
    894 C         170.3393  157.1792  208.2094 C.3      57        0    0.0000
    895 C         170.1387  157.6620  209.6584 C.3      57        0    0.0000
    896 H         169.4943  155.1970  208.7159 H        57        0    0.0000
    897 H         170.0378  155.3844  207.0501 H        57        0    0.0000
    898 H         167.8448  155.7959  206.5547 H        57        0    0.0000
    899 H         167.4250  156.1847  208.2233 H        57        0    0.0000
    900 H         167.8065  158.4156  207.9975 H        57        0    0.0000
    901 H         168.3773  158.4268  205.0707 H        57        0    0.0000
    902 H         166.9008  157.5673  205.4971 H        57        0    0.0000
    903 H         169.9888  159.2094  207.4312 H        57        0    0.0000
    904 H         170.2175  157.9621  206.1977 H        57        0    0.0000
    905 H         171.4092  157.0238  208.0210 H        57        0    0.0000
    906 H         170.7939  157.1209  210.3501 H        57        0    0.0000
    907 H         169.1077  157.4578  209.9706 H        57        0    0.0000
    908 C         170.3930  159.1910  209.7981 C.3      58        0    0.0000
    909 C         171.8370  159.6137  209.4921 C.3      58        0    0.0000
    910 H         169.7323  159.6892  209.0771 H        58        0    0.0000
    911 H         170.0813  159.5279  210.7937 H        58        0    0.0000
    912 H         172.5553  159.0447  210.0940 H        58        0    0.0000
    913 H         172.0470  159.3728  208.4421 H        58        0    0.0000
    914 C         174.4625  162.1480  211.7171 C.3      59        0    0.0000
    915 C         173.4139  161.0387  211.8355 C.3      59        0    0.0000
    916 C         172.1466  161.5603  211.1495 C.3      59        0    0.0000
    917 C         172.1016  161.1495  209.6657 C.3      59        0    0.0000
    918 C         172.2518  163.0721  211.3872 C.3      59        0    0.0000
    919 C         173.7341  163.3881  211.1727 C.3      59        0    0.0000
    920 C         174.1500  164.7087  211.8309 C.3      59        0    0.0000
    921 H         174.9223  162.3285  212.6954 H        59        0    0.0000
    922 H         175.2641  161.8491  211.0320 H        59        0    0.0000
    923 H         173.2042  160.8626  212.8982 H        59        0    0.0000
    924 H         173.7718  160.0917  211.4188 H        59        0    0.0000
    925 H         171.2584  161.1616  211.6564 H        59        0    0.0000
    926 H         173.0639  161.3878  209.1965 H        59        0    0.0000
    927 H         171.3394  161.7155  209.1196 H        59        0    0.0000
    928 H         171.9603  163.2985  212.4212 H        59        0    0.0000
    929 H         171.6094  163.6646  210.7289 H        59        0    0.0000
    930 H         173.9220  163.4531  210.0918 H        59        0    0.0000
    931 H         175.2401  164.8210  211.8049 H        59        0    0.0000
    932 H         173.8565  164.6972  212.8872 H        59        0    0.0000
    933 C         170.0987  165.2468  209.5858 C.3      60        0    0.0000
    934 C         171.1354  164.9508  210.6587 C.3      60        0    0.0000
    935 C         172.4204  165.5720  210.0966 C.3      60        0    0.0000
    936 C         173.4843  165.9338  211.1408 C.3      60        0    0.0000
    937 C         171.9608  166.7327  209.1904 C.3      60        0    0.0000
    938 C         170.4218  166.6877  209.1852 C.3      60        0    0.0000
    939 C         169.7745  167.0755  207.8534 C.3      60        0    0.0000
    940 H         170.2239  164.5626  208.7377 H        60        0    0.0000
    941 H         169.0770  165.1414  209.9632 H        60        0    0.0000
    942 H         170.8295  165.4165  211.6017 H        60        0    0.0000
    943 H         171.2444  163.8763  210.8361 H        60        0    0.0000
    944 H         172.8781  164.8206  209.4360 H        60        0    0.0000
    945 H         174.2663  166.5328  210.6591 H        60        0    0.0000
    946 H         173.0300  166.5701  211.9095 H        60        0    0.0000
    947 H         172.3656  166.5800  208.1822 H        60        0    0.0000
    948 H         172.3178  167.7105  209.5304 H        60        0    0.0000
    949 H         170.0564  167.3558  209.9787 H        60        0    0.0000
    950 H         170.1254  166.4113  207.0548 H        60        0    0.0000
    951 H         168.6891  166.9364  207.9241 H        60        0    0.0000
    952 C         173.4412  169.3734  208.9211 C.3      61        0    0.0000
    953 C         172.3023  168.3843  208.6596 C.3      61        0    0.0000
    954 C         171.0452  169.2298  208.4160 C.3      61        0    0.0000
    955 C         170.0638  168.5505  207.4569 C.3      61        0    0.0000
    956 C         171.6130  170.5607  207.9119 C.3      61        0    0.0000
    957 C         172.8249  170.7752  208.8246 C.3      61        0    0.0000
    958 C         173.8266  171.8179  208.3207 C.3      61        0    0.0000
    959 H         173.8948  169.2105  209.9047 H        61        0    0.0000
    960 H         174.2291  169.2290  208.1721 H        61        0    0.0000
    961 H         172.1603  167.7045  209.5066 H        61        0    0.0000
    962 H         172.5470  167.7683  207.7861 H        61        0    0.0000
    963 H         170.5552  169.4022  209.3854 H        61        0    0.0000
    964 H         170.4811  168.5635  206.4429 H        61        0    0.0000
    965 H         169.1216  169.1094  207.4180 H        61        0    0.0000
    966 H         170.8862  171.3746  207.9991 H        61        0    0.0000
    967 H         171.9208  170.4838  206.8615 H        61        0    0.0000
    968 H         172.4653  171.0608  209.8239 H        61        0    0.0000
    969 H         174.7637  171.7491  208.8855 H        61        0    0.0000
    970 H         173.4236  172.8223  208.4981 H        61        0    0.0000
    971 C         174.1248  171.6662  206.8038 C.3      62        0    0.0000
    972 C         175.3777  172.4203  206.3358 C.3      62        0    0.0000
    973 H         174.2820  170.5961  206.6173 H        62        0    0.0000
    974 H         173.2425  171.9592  206.2227 H        62        0    0.0000
    975 H         175.1455  173.4617  206.0840 H        62        0    0.0000
    976 H         176.0888  172.4505  207.1712 H        62        0    0.0000
    977 C         179.6844  172.5539  205.4530 C.3      63        0    0.0000
    978 C         178.6400  171.7042  204.7308 C.3      63        0    0.0000
    979 C         177.3487  172.5391  204.6828 C.3      63        0    0.0000
    980 C         176.1197  171.7390  205.1342 C.3      63        0    0.0000
    981 C         177.6471  173.7711  205.5511 C.3      63        0    0.0000
    982 C         179.1591  173.9914  205.4162 C.3      63        0    0.0000
    983 C         179.5778  174.7190  204.1257 C.3      63        0    0.0000
    984 H         179.7527  172.2210  206.4966 H        63        0    0.0000
    985 H         180.6805  172.4440  205.0128 H        63        0    0.0000
    986 H         178.5086  170.7443  205.2422 H        63        0    0.0000
    987 H         178.9724  171.4822  203.7098 H        63        0    0.0000
    988 H         177.1993  172.8695  203.6452 H        63        0    0.0000
    989 H         176.4099  170.7186  205.4104 H        63        0    0.0000
    990 H         175.4166  171.6524  204.2971 H        63        0    0.0000
    991 H         177.0572  174.6409  205.2459 H        63        0    0.0000
    992 H         177.4069  173.5636  206.6021 H        63        0    0.0000
    993 H         179.5393  174.5461  206.2836 H        63        0    0.0000
    994 H         179.0612  174.3075  203.2519 H        63        0    0.0000
    995 H         180.6505  174.5651  203.9564 H        63        0    0.0000
    996 C         179.8127  178.5229  201.2388 C.3      64        0    0.0000
    997 C         179.3528  177.1938  201.8434 C.3      64        0    0.0000
    998 C         180.1187  177.0331  203.1632 C.3      64        0    0.0000
    999 C         179.3193  176.2501  204.2084 C.3      64        0    0.0000
   1000 C         180.4409  178.4785  203.5570 C.3      64        0    0.0000
   1001 C         180.8374  179.1100  202.2184 C.3      64        0    0.0000
   1002 C         180.8388  180.6412  202.2108 C.3      64        0    0.0000
   1003 H         180.2549  178.3797  200.2469 H        64        0    0.0000
   1004 H         178.9485  179.1867  201.1164 H        64        0    0.0000
   1005 H         179.5546  176.3556  201.1677 H        64        0    0.0000
   1006 H         178.2693  177.2237  202.0093 H        64        0    0.0000
   1007 H         181.0618  176.5090  202.9504 H        64        0    0.0000
   1008 H         178.2487  176.4317  204.0559 H        64        0    0.0000
   1009 H         179.5600  176.6068  205.2167 H        64        0    0.0000
   1010 H         181.2519  178.5315  204.2903 H        64        0    0.0000
   1011 H         179.5595  178.9762  203.9804 H        64        0    0.0000
   1012 H         181.8332  178.7380  201.9363 H        64        0    0.0000
   1013 H         180.2133  181.0261  203.0246 H        64        0    0.0000
   1014 H         180.3945  180.9989  201.2742 H        64        0    0.0000
   1015 C         182.2703  181.2314  202.3355 C.3      65        0    0.0000
   1016 C         182.4539  182.5786  201.6223 C.3      65        0    0.0000
   1017 H         182.9532  180.5063  201.8745 H        65        0    0.0000
   1018 H         182.5515  181.2983  203.3930 H        65        0    0.0000
   1019 H         181.7797  182.6003  200.7566 H        65        0    0.0000
   1020 H         182.1616  183.4149  202.2682 H        65        0    0.0000
   1021 C         185.5712  185.9423  199.9687 C.3      66        0    0.0000
   1022 C         184.5591  185.3074  200.9255 C.3      66        0    0.0000
   1023 C         183.9823  184.0768  200.2029 C.3      66        0    0.0000
   1024 C         183.9033  182.8165  201.0733 C.3      66        0    0.0000
   1025 C         184.8917  183.8883  198.9845 C.3      66        0    0.0000
   1026 C         185.3165  185.3087  198.5967 C.3      66        0    0.0000
   1027 C         184.2352  186.0434  197.7818 C.3      66        0    0.0000
   1028 H         185.5036  187.0343  199.9702 H        66        0    0.0000
   1029 H         186.5839  185.6824  200.3025 H        66        0    0.0000
   1030 H         185.0470  185.0545  201.8733 H        66        0    0.0000
   1031 H         183.7542  186.0156  201.1544 H        66        0    0.0000
   1032 H         182.9753  184.3297  199.8413 H        66        0    0.0000
   1033 H         184.1971  181.9444  200.4771 H        66        0    0.0000
   1034 H         184.6101  182.8831  201.9085 H        66        0    0.0000
   1035 H         184.3836  183.3595  198.1715 H        66        0    0.0000
   1036 H         185.7792  183.3027  199.2572 H        66        0    0.0000
   1037 H         186.2471  185.2689  198.0164 H        66        0    0.0000
   1038 H         184.1761  187.1002  198.0650 H        66        0    0.0000
   1039 H         183.2550  185.6010  197.9956 H        66        0    0.0000
   1040 C         181.9147  186.3525  193.6709 C.3      67        0    0.0000
   1041 C         182.1954  186.1700  195.1617 C.3      67        0    0.0000
   1042 C         183.5535  186.8374  195.4396 C.3      67        0    0.0000
   1043 C         184.4920  185.9344  196.2508 C.3      67        0    0.0000
   1044 C         184.0940  187.2168  194.0523 C.3      67        0    0.0000
   1045 C         182.8451  187.4730  193.1993 C.3      67        0    0.0000
   1046 C         182.2149  188.8625  193.4052 C.3      67        0    0.0000
   1047 H         182.1721  185.4241  193.1452 H        67        0    0.0000
   1048 H         180.8572  186.5536  193.4728 H        67        0    0.0000
   1049 H         182.1807  185.1069  195.4258 H        67        0    0.0000
   1050 H         181.4161  186.6605  195.7568 H        67        0    0.0000
   1051 H         183.3658  187.7600  196.0069 H        67        0    0.0000
   1052 H         185.5382  186.1794  196.0337 H        67        0    0.0000
   1053 H         184.3419  184.8911  195.9478 H        67        0    0.0000
   1054 H         184.7685  188.0775  194.0959 H        67        0    0.0000
   1055 H         184.6576  186.3792  193.6210 H        67        0    0.0000
   1056 H         183.0789  187.3361  192.1358 H        67        0    0.0000
   1057 H         181.9961  189.0470  194.4625 H        67        0    0.0000
   1058 H         181.2558  188.9059  192.8749 H        67        0    0.0000
   1059 C         183.1198  190.0014  192.8558 C.3      68        0    0.0000
   1060 C         182.3843  191.0016  191.9523 C.3      68        0    0.0000
   1061 H         183.5047  190.5480  193.7262 H        68        0    0.0000
   1062 H         183.9896  189.5693  192.3473 H        68        0    0.0000
   1063 H         181.3329  190.7209  191.8195 H        68        0    0.0000
   1064 H         182.3875  191.9785  192.4527 H        68        0    0.0000
   1065 C         185.5688  189.4540  191.7307 C.3      69        0    0.0000
   1066 C         185.1183  190.8927  191.9981 C.3      69        0    0.0000
   1067 C         184.5759  191.4345  190.6711 C.3      69        0    0.0000
   1068 C         183.0570  191.2086  190.5511 C.3      69        0    0.0000
   1069 C         185.4156  190.6657  189.6430 C.3      69        0    0.0000
   1070 C         185.5020  189.2459  190.2086 C.3      69        0    0.0000
   1071 C         186.6782  188.4558  189.6236 C.3      69        0    0.0000
   1072 H         186.5780  189.3021  192.1301 H        69        0    0.0000
   1073 H         184.9081  188.7425  192.2391 H        69        0    0.0000
   1074 H         185.9904  191.4855  192.3019 H        69        0    0.0000
   1075 H         184.3928  190.9485  192.8161 H        69        0    0.0000
   1076 H         184.7829  192.5098  190.5960 H        69        0    0.0000
   1077 H         182.8727  190.3129  189.9456 H        69        0    0.0000
   1078 H         182.5711  192.0417  190.0322 H        69        0    0.0000
   1079 H         186.4165  191.1131  189.5838 H        69        0    0.0000
   1080 H         184.9916  190.6775  188.6345 H        69        0    0.0000
   1081 H         184.5660  188.7208  189.9718 H        69        0    0.0000
   1082 H         186.3411  187.4730  189.2740 H        69        0    0.0000
   1083 H         187.4223  188.2761  190.4084 H        69        0    0.0000
   1084 C         187.5399  186.9158  185.4338 C.3      70        0    0.0000
   1085 C         187.4725  187.1175  186.9412 C.3      70        0    0.0000
   1086 C         187.1160  188.6020  187.0717 C.3      70        0    0.0000
   1087 C         187.3617  189.2182  188.4523 C.3      70        0    0.0000
   1088 C         187.8327  189.2962  185.8971 C.3      70        0    0.0000
   1089 C         188.2879  188.1644  184.9550 C.3      70        0    0.0000
   1090 C         188.1734  188.4656  183.4576 C.3      70        0    0.0000
   1091 H         188.0663  185.9939  185.1678 H        70        0    0.0000
   1092 H         186.5261  186.8596  185.0223 H        70        0    0.0000
   1093 H         186.7216  186.4718  187.4069 H        70        0    0.0000
   1094 H         188.4452  186.8863  187.3893 H        70        0    0.0000
   1095 H         186.0361  188.6888  186.8785 H        70        0    0.0000
   1096 H         188.4413  189.2572  188.6399 H        70        0    0.0000
   1097 H         187.0045  190.2548  188.4508 H        70        0    0.0000
   1098 H         188.7032  189.8802  186.2148 H        70        0    0.0000
   1099 H         187.1470  190.0014  185.4151 H        70        0    0.0000
   1100 H         189.3558  187.9941  185.1587 H        70        0    0.0000
   1101 H         188.9262  189.2146  183.1845 H        70        0    0.0000
   1102 H         188.4117  187.5581  182.8902 H        70        0    0.0000
   1103 C         186.7713  188.9800  183.0131 C.3      71        0    0.0000
   1104 C         186.6629  189.2761  181.5105 C.3      71        0    0.0000
   1105 H         186.5894  189.9150  183.5583 H        71        0    0.0000
   1106 H         185.9986  188.2729  183.3371 H        71        0    0.0000
   1107 H         185.9942  188.5291  181.0636 H        71        0    0.0000
   1108 H         186.2047  190.2554  181.3289 H        71        0    0.0000
   1109 C         188.0264  189.1801  180.7422 C.3      72        0    0.0000
   1110 C         188.0491  189.9485  179.4132 C.3      72        0    0.0000
   1111 H         188.1930  188.1174  180.5240 H        72        0    0.0000
   1112 H         188.8442  189.4968  181.4001 H        72        0    0.0000
   1113 H         187.7879  189.2475  178.6101 H        72        0    0.0000
   1114 H         187.2908  190.7402  179.3971 H        72        0    0.0000
   1115 C         188.7635  193.8574  177.3683 C.3      73        0    0.0000
   1116 C         188.2759  192.5909  178.0769 C.3      73        0    0.0000
   1117 C         189.3745  191.5378  177.8810 C.3      73        0    0.0000
   1118 C         189.4502  190.5515  179.0497 C.3      73        0    0.0000
   1119 C         190.6355  192.3840  177.6767 C.3      73        0    0.0000
   1120 C         190.1363  193.5168  176.7737 C.3      73        0    0.0000
   1121 C         191.0610  194.7355  176.7087 C.3      73        0    0.0000
   1122 H         188.0642  194.1730  176.5865 H        73        0    0.0000
   1123 H         188.8323  194.6776  178.0930 H        73        0    0.0000
   1124 H         187.3218  192.2444  177.6655 H        73        0    0.0000
   1125 H         188.1122  192.8072  179.1394 H        73        0    0.0000
   1126 H         189.1637  190.9920  176.9497 H        73        0    0.0000
   1127 H         189.8480  191.0662  179.9325 H        73        0    0.0000
   1128 H         190.1479  189.7386  178.8166 H        73        0    0.0000
   1129 H         191.4409  191.8108  177.2065 H        73        0    0.0000
   1130 H         191.0041  192.7769  178.6326 H        73        0    0.0000
   1131 H         189.9813  193.1160  175.7614 H        73        0    0.0000
   1132 H         191.7229  194.7577  177.5824 H        73        0    0.0000
   1133 H         190.4574  195.6503  176.7461 H        73        0    0.0000
   1134 C         194.2150  191.8156  174.7150 C.3      74        0    0.0000
   1135 C         193.7493  192.9435  175.6251 C.3      74        0    0.0000
   1136 C         192.4353  193.3876  174.9740 C.3      74        0    0.0000
   1137 C         191.9156  194.7604  175.4118 C.3      74        0    0.0000
   1138 C         192.6540  193.2124  173.4584 C.3      74        0    0.0000
   1139 C         193.9365  192.3699  173.3140 C.3      74        0    0.0000
   1140 C         193.9216  191.3323  172.1873 C.3      74        0    0.0000
   1141 H         195.2741  191.5825  174.8620 H        74        0    0.0000
   1142 H         193.6352  190.9095  174.9224 H        74        0    0.0000
   1143 H         193.6035  192.6039  176.6552 H        74        0    0.0000
   1144 H         194.4965  193.7447  175.6335 H        74        0    0.0000
   1145 H         191.6693  192.6548  175.2695 H        74        0    0.0000
   1146 H         192.7675  195.4337  175.5642 H        74        0    0.0000
   1147 H         191.3146  195.1910  174.6022 H        74        0    0.0000
   1148 H         192.7810  194.1654  172.9336 H        74        0    0.0000
   1149 H         191.7758  192.7304  173.0152 H        74        0    0.0000
   1150 H         194.7512  193.0722  173.0811 H        74        0    0.0000
   1151 H         194.9082  190.8583  172.1241 H        74        0    0.0000
   1152 H         193.2070  190.5398  172.4395 H        74        0    0.0000
   1153 C         193.5537  191.9113  170.7882 C.3      75        0    0.0000
   1154 C         193.4532  190.8520  169.6814 C.3      75        0    0.0000
   1155 H         192.5714  192.3898  170.8917 H        75        0    0.0000
   1156 H         194.2615  192.7039  170.5187 H        75        0    0.0000
   1157 H         194.4432  190.4748  169.3992 H        75        0    0.0000
   1158 H         192.8931  189.9961  170.0791 H        75        0    0.0000
   1159 C         193.8152  189.7373  165.2967 C.3      76        0    0.0000
   1160 C         193.9191  189.7560  166.8209 C.3      76        0    0.0000
   1161 C         192.5540  190.2288  167.3502 C.3      76        0    0.0000
   1162 C         192.6886  191.3381  168.4017 C.3      76        0    0.0000
   1163 C         191.7716  190.6469  166.0957 C.3      76        0    0.0000
   1164 C         192.3187  189.7544  164.9744 C.3      76        0    0.0000
   1165 C         191.7238  188.3345  164.9514 C.3      76        0    0.0000
   1166 H         194.2809  190.6478  164.8981 H        76        0    0.0000
   1167 H         194.3443  188.8853  164.8585 H        76        0    0.0000
   1168 H         194.7462  190.3998  167.1395 H        76        0    0.0000
   1169 H         194.1311  188.7488  167.1987 H        76        0    0.0000
   1170 H         192.0509  189.3637  167.8050 H        76        0    0.0000
   1171 H         191.6995  191.7169  168.6844 H        76        0    0.0000
   1172 H         193.2390  192.1822  167.9691 H        76        0    0.0000
   1173 H         190.6906  190.5483  166.2345 H        76        0    0.0000
   1174 H         191.9771  191.6971  165.8511 H        76        0    0.0000
   1175 H         192.1561  190.2303  163.9989 H        76        0    0.0000
   1176 H         192.0519  187.7521  165.8190 H        76        0    0.0000
   1177 H         192.0882  187.8050  164.0627 H        76        0    0.0000
   1178 C         190.6072  192.0386  164.8935 C.3      77        0    0.0000
   1179 C         190.3937  190.7811  165.7398 C.3      77        0    0.0000
   1180 C         189.6192  189.7842  164.8591 C.3      77        0    0.0000
   1181 C         190.1700  188.3533  164.8961 C.3      77        0    0.0000
   1182 C         189.6726  190.3937  163.4545 C.3      77        0    0.0000
   1183 C         189.6665  191.9079  163.6906 C.3      77        0    0.0000
   1184 C         188.2526  192.4539  163.9657 C.3      77        0    0.0000
   1185 H         190.4551  192.9522  165.4759 H        77        0    0.0000
   1186 H         191.6456  192.0529  164.5381 H        77        0    0.0000
   1187 H         191.3589  190.3891  166.0787 H        77        0    0.0000
   1188 H         189.8082  191.0191  166.6355 H        77        0    0.0000
   1189 H         188.5702  189.7761  165.1879 H        77        0    0.0000
   1190 H         189.7840  187.8385  165.7840 H        77        0    0.0000
   1191 H         189.8229  187.7867  164.0244 H        77        0    0.0000
   1192 H         188.8389  190.0575  162.8296 H        77        0    0.0000
   1193 H         190.6033  190.1062  162.9484 H        77        0    0.0000
   1194 H         190.0916  192.4182  162.8170 H        77        0    0.0000
   1195 H         188.2916  193.3668  164.5704 H        77        0    0.0000
   1196 H         187.6826  191.7148  164.5411 H        77        0    0.0000
   1197 C         187.4839  189.6036  160.5260 C.3      78        0    0.0000
   1198 C         187.7276  190.2850  161.8639 C.3      78        0    0.0000
   1199 C         187.7956  191.7738  161.5009 C.3      78        0    0.0000
   1200 C         187.4783  192.7427  162.6470 C.3      78        0    0.0000
   1201 C         186.9252  191.9353  160.2376 C.3      78        0    0.0000
   1202 C         186.4560  190.5189  159.8576 C.3      78        0    0.0000
   1203 C         186.3477  190.2627  158.3523 C.3      78        0    0.0000
   1204 H         188.4138  189.5625  159.9459 H        78        0    0.0000
   1205 H         187.1108  188.5822  160.6484 H        78        0    0.0000
   1206 H         186.8983  190.0630  162.5442 H        78        0    0.0000
   1207 H         188.6511  189.9370  162.3373 H        78        0    0.0000
   1208 H         188.8320  191.9832  161.1966 H        78        0    0.0000
   1209 H         187.7073  193.7648  162.3224 H        78        0    0.0000
   1210 H         186.4020  192.7127  162.8539 H        78        0    0.0000
   1211 H         187.5335  192.3792  159.4396 H        78        0    0.0000
   1212 H         186.0676  192.5990  160.3888 H        78        0    0.0000
   1213 H         185.4790  190.3428  160.3306 H        78        0    0.0000
   1214 H         187.1384  190.8035  157.8188 H        78        0    0.0000
   1215 H         186.5071  189.1962  158.1540 H        78        0    0.0000
   1216 C         184.2625  188.9436  154.4662 C.3      79        0    0.0000
   1217 C         185.2390  189.5851  155.4421 C.3      79        0    0.0000
   1218 C         184.4081  189.7124  156.7231 C.3      79        0    0.0000
   1219 C         184.9650  190.6765  157.7749 C.3      79        0    0.0000
   1220 C         182.9716  190.0054  156.2475 C.3      79        0    0.0000
   1221 C         182.9604  189.7048  154.7359 C.3      79        0    0.0000
   1222 C         181.6874  189.0388  154.2045 C.3      79        0    0.0000
   1223 H         184.5931  189.0490  153.4283 H        79        0    0.0000
   1224 H         184.1681  187.8745  154.6863 H        79        0    0.0000
   1225 H         186.1320  188.9700  155.5906 H        79        0    0.0000
   1226 H         185.5578  190.5607  155.0589 H        79        0    0.0000
   1227 H         184.3889  188.7165  157.1910 H        79        0    0.0000
   1228 H         185.0525  191.6763  157.3335 H        79        0    0.0000
   1229 H         184.2487  190.7585  158.6010 H        79        0    0.0000
   1230 H         182.6712  191.0452  156.4161 H        79        0    0.0000
   1231 H         182.2660  189.3849  156.8102 H        79        0    0.0000
   1232 H         183.0446  190.6734  154.2204 H        79        0    0.0000
   1233 H         181.9422  188.4231  153.3337 H        79        0    0.0000
   1234 H         181.2940  188.3572  154.9680 H        79        0    0.0000
   1235 C         180.5631  190.0385  153.7989 C.3      80        0    0.0000
   1236 C         179.9029  189.7210  152.4496 C.3      80        0    0.0000
   1237 H         181.0312  191.0284  153.7243 H        80        0    0.0000
   1238 H         179.8192  190.1034  154.6015 H        80        0    0.0000
   1239 H         180.6279  189.1698  151.8371 H        80        0    0.0000
   1240 H         179.0347  189.0633  152.5753 H        80        0    0.0000
   1241 C         176.1980  192.5433  152.6211 C.3      81        0    0.0000
   1242 C         177.4197  191.6786  152.9430 C.3      81        0    0.0000
   1243 C         177.9720  191.1950  151.5957 C.3      81        0    0.0000
   1244 C         179.4892  190.9909  151.6281 C.3      81        0    0.0000
   1245 C         177.4933  192.2718  150.6163 C.3      81        0    0.0000
   1246 C         176.0630  192.5460  151.0927 C.3      81        0    0.0000
   1247 C         175.4531  193.8475  150.5646 C.3      81        0    0.0000
   1248 H         175.2925  192.1488  153.0947 H        81        0    0.0000
   1249 H         176.3542  193.5559  153.0119 H        81        0    0.0000
   1250 H         177.1529  190.8321  153.5848 H        81        0    0.0000
   1251 H         178.1585  192.2788  153.4874 H        81        0    0.0000
   1252 H         177.4767  190.2460  151.3432 H        81        0    0.0000
   1253 H         179.9630  191.8695  152.0822 H        81        0    0.0000
   1254 H         179.8839  190.9105  150.6085 H        81        0    0.0000
   1255 H         177.5190  191.9221  149.5794 H        81        0    0.0000
   1256 H         178.1124  193.1746  150.6916 H        81        0    0.0000
   1257 H         175.4279  191.6961  150.8033 H        81        0    0.0000
   1258 H         175.4121  194.5991  151.3616 H        81        0    0.0000
   1259 H         174.4186  193.6616  150.2519 H        81        0    0.0000
   1260 C         176.2398  194.4201  149.3538 C.3      82        0    0.0000
   1261 C         175.4877  194.3228  148.0188 C.3      82        0    0.0000
   1262 H         176.4199  195.4817  149.5665 H        82        0    0.0000
   1263 H         177.2242  193.9413  149.2930 H        82        0    0.0000
   1264 H         174.7206  193.5401  148.0492 H        82        0    0.0000
   1265 H         174.9614  195.2717  147.8545 H        82        0    0.0000
   1266 C         177.3777  190.5913  146.0461 C.3      83        0    0.0000
   1267 C         176.5783  191.5320  146.9510 C.3      83        0    0.0000
   1268 C         177.3261  192.8774  146.9575 C.3      83        0    0.0000
   1269 C         176.4196  194.1012  146.7773 C.3      83        0    0.0000
   1270 C         178.3589  192.7457  145.8336 C.3      83        0    0.0000
   1271 C         178.7392  191.2612  145.8311 C.3      83        0    0.0000
   1272 C         179.7640  190.9155  146.9280 C.3      83        0    0.0000
   1273 H         177.4431  189.5822  146.4639 H        83        0    0.0000
   1274 H         176.8619  190.5069  145.0809 H        83        0    0.0000
   1275 H         175.5491  191.6189  146.5856 H        83        0    0.0000
   1276 H         176.5274  191.1297  147.9695 H        83        0    0.0000
   1277 H         177.8679  192.9662  147.9101 H        83        0    0.0000
   1278 H         177.0395  194.9958  146.6435 H        83        0    0.0000
   1279 H         175.8119  193.9975  145.8711 H        83        0    0.0000
   1280 H         179.2193  193.4048  145.9880 H        83        0    0.0000
   1281 H         177.9083  193.0095  144.8680 H        83        0    0.0000
   1282 H         179.1480  190.9878  144.8500 H        83        0    0.0000
   1283 H         179.5203  189.9628  147.4112 H        83        0    0.0000
   1284 H         179.7353  191.6851  147.7085 H        83        0    0.0000
   1285 C         180.5351  192.5267  143.1237 C.3      84        0    0.0000
   1286 C         181.3648  191.4765  143.8663 C.3      84        0    0.0000
   1287 C         181.4698  191.9507  145.3269 C.3      84        0    0.0000
   1288 C         181.2133  190.8510  146.3647 C.3      84        0    0.0000
   1289 C         180.4588  193.0973  145.4298 C.3      84        0    0.0000
   1290 C         180.4743  193.7509  144.0438 C.3      84        0    0.0000
   1291 C         181.6677  194.7072  143.8586 C.3      84        0    0.0000
   1292 H         180.9425  192.7403  142.1309 H        84        0    0.0000
   1293 H         179.5199  192.1360  142.9774 H        84        0    0.0000
   1294 H         180.8945  190.4916  143.7713 H        84        0    0.0000
   1295 H         182.3662  191.4009  143.4268 H        84        0    0.0000
   1296 H         182.4752  192.3673  145.4829 H        84        0    0.0000
   1297 H         181.3622  189.8698  145.8985 H        84        0    0.0000
   1298 H         181.9345  190.9248  147.1868 H        84        0    0.0000
   1299 H         180.7125  193.7969  146.2328 H        84        0    0.0000
   1300 H         179.4552  192.7041  145.6375 H        84        0    0.0000
   1301 H         179.5378  194.3006  143.8857 H        84        0    0.0000
   1302 H         182.5788  194.2944  144.3058 H        84        0    0.0000
   1303 H         181.4599  195.6525  144.3741 H        84        0    0.0000
   1304 C         180.8096  192.6346  139.8029 C.3      85        0    0.0000
   1305 C         180.9103  192.9342  141.2977 C.3      85        0    0.0000
   1306 C         180.8257  194.4630  141.4478 C.3      85        0    0.0000
   1307 C         181.9282  195.0218  142.3569 C.3      85        0    0.0000
   1308 C         180.8687  195.0002  140.0089 C.3      85        0    0.0000
   1309 C         180.2305  193.8959  139.1568 C.3      85        0    0.0000
   1310 C         178.6910  193.8926  139.1785 C.3      85        0    0.0000
   1311 H         181.8181  192.4570  139.4079 H        85        0    0.0000
   1312 H         180.2207  191.7341  139.6023 H        85        0    0.0000
   1313 H         181.8352  192.5158  141.7096 H        85        0    0.0000
   1314 H         180.0775  192.4654  141.8351 H        85        0    0.0000
   1315 H         179.8459  194.7052  141.8831 H        85        0    0.0000
   1316 H         182.0240  196.1049  142.2180 H        85        0    0.0000
   1317 H         182.8907  194.5798  142.0724 H        85        0    0.0000
   1318 H         180.3588  195.9640  139.9153 H        85        0    0.0000
   1319 H         181.9083  195.1459  139.6876 H        85        0    0.0000
   1320 H         180.5771  193.9716  138.1182 H        85        0    0.0000
   1321 H         178.3052  194.3927  140.0734 H        85        0    0.0000
   1322 H         178.3329  192.8568  139.2196 H        85        0    0.0000
   1323 C         177.9451  194.0278  134.2401 C.3      86        0    0.0000
   1324 C         177.3668  193.6499  135.6060 C.3      86        0    0.0000
   1325 C         178.5033  193.8260  136.6291 C.3      86        0    0.0000
   1326 C         178.0877  194.5597  137.9101 C.3      86        0    0.0000
   1327 C         179.5983  194.5710  135.8591 C.3      86        0    0.0000
   1328 C         179.4669  194.0678  134.4176 C.3      86        0    0.0000
   1329 C         180.1368  192.6962  134.2108 C.3      86        0    0.0000
   1330 H         177.6101  193.3454  133.4531 H        86        0    0.0000
   1331 H         177.5880  195.0299  133.9703 H        86        0    0.0000
   1332 H         176.4935  194.2729  135.8286 H        86        0    0.0000
   1333 H         177.0282  192.6073  135.6017 H        86        0    0.0000
   1334 H         178.8881  192.8302  136.8918 H        86        0    0.0000
   1335 H         178.4370  195.5981  137.8634 H        86        0    0.0000
   1336 H         176.9954  194.5954  137.9937 H        86        0    0.0000
   1337 H         180.5918  194.3921  136.2830 H        86        0    0.0000
   1338 H         179.4160  195.6531  135.8868 H        86        0    0.0000
   1339 H         179.9117  194.7989  133.7306 H        86        0    0.0000
   1340 H         179.4213  191.8798  134.3589 H        86        0    0.0000
   1341 H         180.9308  192.5630  134.9552 H        86        0    0.0000
   1342 C         180.7738  192.5720  132.7963 C.3      87        0    0.0000
   1343 C         179.8464  191.9414  131.7476 C.3      87        0    0.0000
   1344 H         181.0165  193.5906  132.4676 H        87        0    0.0000
   1345 H         181.7243  192.0301  132.8654 H        87        0    0.0000
   1346 H         180.4046  191.2996  131.0559 H        87        0    0.0000
   1347 H         179.1324  191.2925  132.2708 H        87        0    0.0000
   1348 C         179.0008  192.9831  130.9362 C.3      88        0    0.0000
   1349 C         179.1830  192.8850  129.4148 C.3      88        0    0.0000
   1350 H         177.9464  192.7835  131.1664 H        88        0    0.0000
   1351 H         179.2146  193.9953  131.2990 H        88        0    0.0000
   1352 H         179.8829  192.0845  129.1477 H        88        0    0.0000
   1353 H         178.2151  192.6159  128.9727 H        88        0    0.0000
   1354 C         181.8595  195.6963  131.4450 C.3      89        0    0.0000
   1355 C         180.9725  194.5722  130.9280 C.3      89        0    0.0000
   1356 C         180.7903  194.9330  129.4501 C.3      89        0    0.0000
   1357 C         179.6319  194.2268  128.7390 C.3      89        0    0.0000
   1358 C         180.7544  196.4733  129.4099 C.3      89        0    0.0000
   1359 C         181.2487  196.9409  130.7928 C.3      89        0    0.0000
   1360 C         182.1409  198.1860  130.7889 C.3      89        0    0.0000
   1361 H         181.8477  195.7567  132.5377 H        89        0    0.0000
   1362 H         182.8937  195.5286  131.1247 H        89        0    0.0000
   1363 H         181.4394  193.5908  131.0572 H        89        0    0.0000
   1364 H         180.0218  194.5710  131.4723 H        89        0    0.0000
   1365 H         181.7102  194.6247  128.9307 H        89        0    0.0000
   1366 H         178.7713  194.9048  128.6963 H        89        0    0.0000
   1367 H         179.9212  194.0192  127.7019 H        89        0    0.0000
   1368 H         179.7506  196.8712  129.2262 H        89        0    0.0000
   1369 H         181.3840  196.8327  128.5888 H        89        0    0.0000
   1370 H         180.3530  197.2002  131.3773 H        89        0    0.0000
   1371 H         181.7083  198.9385  131.4588 H        89        0    0.0000
   1372 H         183.1228  197.9247  131.2009 H        89        0    0.0000
   1373 C         182.3424  198.8250  129.3820 C.3      90        0    0.0000
   1374 C         183.7332  199.4397  129.1694 C.3      90        0    0.0000
   1375 H         182.2095  198.0210  128.6469 H        90        0    0.0000
   1376 H         181.5493  199.5576  129.1920 H        90        0    0.0000
   1377 H         183.8897  200.3074  129.8209 H        90        0    0.0000
   1378 H         184.4835  198.6920  129.4572 H        90        0    0.0000
   1379 C         187.6554  200.8683  127.2640 C.3      91        0    0.0000
   1380 C         186.5791  200.1481  128.0618 C.3      91        0    0.0000
   1381 C         185.2721  200.7227  127.5008 C.3      91        0    0.0000
   1382 C         184.0348  199.8343  127.6822 C.3      91        0    0.0000
   1383 C         185.5863  201.1313  126.0469 C.3      91        0    0.0000
   1384 C         187.0888  200.8643  125.8427 C.3      91        0    0.0000
   1385 C         187.8002  201.8708  124.9350 C.3      91        0    0.0000
   1386 H         187.7830  201.8921  127.6364 H        91        0    0.0000
   1387 H         188.6215  200.3582  127.3259 H        91        0    0.0000
   1388 H         186.6608  199.0685  127.8953 H        91        0    0.0000
   1389 H         186.6773  200.3293  129.1367 H        91        0    0.0000
   1390 H         185.0682  201.6534  128.0511 H        91        0    0.0000
   1391 H         183.1605  200.3544  127.2730 H        91        0    0.0000
   1392 H         184.1610  198.9194  127.0912 H        91        0    0.0000
   1393 H         185.3508  202.1949  125.9164 H        91        0    0.0000
   1394 H         184.9923  200.5824  125.3086 H        91        0    0.0000
   1395 H         187.2042  199.8520  125.4289 H        91        0    0.0000
   1396 H         188.3194  202.6241  125.5393 H        91        0    0.0000
   1397 H         188.5693  201.3514  124.3510 H        91        0    0.0000
   1398 C         186.8258  202.5831  123.9553 C.3      92        0    0.0000
   1399 C         187.5243  203.4762  122.9200 C.3      92        0    0.0000
   1400 H         186.1707  203.2177  124.5657 H        92        0    0.0000
   1401 H         186.1805  201.8407  123.4712 H        92        0    0.0000
   1402 H         186.7695  203.8165  122.1995 H        92        0    0.0000
   1403 H         187.9409  204.3766  123.3863 H        92        0    0.0000
   1404 C         188.6392  202.7439  122.0956 C.3      93        0    0.0000
   1405 C         189.2509  203.5989  120.9767 C.3      93        0    0.0000
   1406 H         188.1676  201.8666  121.6346 H        93        0    0.0000
   1407 H         189.4114  202.3639  122.7748 H        93        0    0.0000
   1408 H         188.4471  204.1944  120.5251 H        93        0    0.0000
   1409 H         189.9833  204.3113  121.3741 H        93        0    0.0000
   1410 C         190.0044  204.3115  116.4927 C.3      94        0    0.0000
   1411 C         189.6084  204.4860  117.9581 C.3      94        0    0.0000
   1412 C         190.6031  203.6539  118.7858 C.3      94        0    0.0000
   1413 C         189.9005  202.7638  119.8194 C.3      94        0    0.0000
   1414 C         191.4239  202.8768  117.7451 C.3      94        0    0.0000
   1415 C         191.4388  203.7768  116.5030 C.3      94        0    0.0000
   1416 C         192.4722  204.9165  116.5623 C.3      94        0    0.0000
   1417 H         189.3440  203.5650  116.0331 H        94        0    0.0000
   1418 H         189.8904  205.2387  115.9223 H        94        0    0.0000
   1419 H         188.5671  204.1820  118.1111 H        94        0    0.0000
   1420 H         189.6816  205.5410  118.2473 H        94        0    0.0000
   1421 H         191.2718  204.3515  119.3098 H        94        0    0.0000
   1422 H         190.6063  202.0378  120.2394 H        94        0    0.0000
   1423 H         189.1108  202.1869  119.3232 H        94        0    0.0000
   1424 H         192.4260  202.6334  118.1114 H        94        0    0.0000
   1425 H         190.9260  201.9305  117.4967 H        94        0    0.0000
   1426 H         191.6154  203.1752  115.6022 H        94        0    0.0000
   1427 H         192.5120  205.3654  117.5606 H        94        0    0.0000
   1428 H         192.1701  205.7138  115.8724 H        94        0    0.0000
   1429 C         191.8339  201.8844  116.2756 C.3      95        0    0.0000
   1430 C         192.9561  202.3332  117.2155 C.3      95        0    0.0000
   1431 C         194.0613  202.9174  116.3288 C.3      95        0    0.0000
   1432 C         193.8934  204.4382  116.1510 C.3      95        0    0.0000
   1433 C         193.9000  202.1052  115.0375 C.3      95        0    0.0000
   1434 C         192.3854  201.9955  114.8445 C.3      95        0    0.0000
   1435 C         191.9977  200.8338  113.9226 C.3      95        0    0.0000
   1436 H         191.5266  200.8630  116.5276 H        95        0    0.0000
   1437 H         190.9533  202.5263  116.3926 H        95        0    0.0000
   1438 H         193.3445  201.4551  117.7469 H        95        0    0.0000
   1439 H         192.5967  203.0342  117.9758 H        95        0    0.0000
   1440 H         195.0427  202.7177  116.7778 H        95        0    0.0000
   1441 H         194.0519  204.6974  115.0972 H        95        0    0.0000
   1442 H         194.6451  204.9907  116.7249 H        95        0    0.0000
   1443 H         194.3387  201.1086  115.1780 H        95        0    0.0000
   1444 H         194.3895  202.5591  114.1707 H        95        0    0.0000
   1445 H         192.0228  202.9358  114.4059 H        95        0    0.0000
   1446 H         190.9294  200.8786  113.6812 H        95        0    0.0000
   1447 H         192.1665  199.8838  114.4434 H        95        0    0.0000
   1448 C         194.2009  204.2239  111.6090 C.3      96        0    0.0000
   1449 C         193.7639  203.2521  112.6944 C.3      96        0    0.0000
   1450 C         192.9385  202.2090  111.9305 C.3      96        0    0.0000
   1451 C         192.8287  200.8368  112.6074 C.3      96        0    0.0000
   1452 C         193.5068  202.1960  110.4965 C.3      96        0    0.0000
   1453 C         194.5819  203.2973  110.4525 C.3      96        0    0.0000
   1454 C         194.6775  204.0458  109.1208 C.3      96        0    0.0000
   1455 H         193.3686  204.8822  111.3312 H        96        0    0.0000
   1456 H         195.0391  204.8489  111.9320 H        96        0    0.0000
   1457 H         194.6476  202.8125  113.1696 H        96        0    0.0000
   1458 H         193.1764  203.7474  113.4739 H        96        0    0.0000
   1459 H         191.9131  202.6012  111.8579 H        96        0    0.0000
   1460 H         192.3748  200.1285  111.9040 H        96        0    0.0000
   1461 H         193.8363  200.4624  112.8237 H        96        0    0.0000
   1462 H         192.6949  202.4056  109.7890 H        96        0    0.0000
   1463 H         193.9330  201.2282  110.2120 H        96        0    0.0000
   1464 H         195.5535  202.8378  110.6854 H        96        0    0.0000
   1465 H         193.9215  204.8388  109.0774 H        96        0    0.0000
   1466 H         195.6546  204.5386  109.0515 H        96        0    0.0000
   1467 C         196.8860  200.1789  107.5577 C.3      97        0    0.0000
   1468 C         196.0317  201.0827  108.4334 C.3      97        0    0.0000
   1469 C         195.7568  202.2959  107.5359 C.3      97        0    0.0000
   1470 C         194.5046  203.1060  107.8947 C.3      97        0    0.0000
   1471 C         195.8092  201.7645  106.0887 C.3      97        0    0.0000
   1472 C         196.2031  200.2797  106.1922 C.3      97        0    0.0000
   1473 C         197.1005  199.7749  105.0595 C.3      97        0    0.0000
   1474 H         197.9154  200.5552  107.5142 H        97        0    0.0000
   1475 H         196.9123  199.1512  107.9325 H        97        0    0.0000
   1476 H         195.1114  200.5583  108.7125 H        97        0    0.0000
   1477 H         196.5487  201.3653  109.3558 H        97        0    0.0000
   1478 H         196.6111  202.9798  107.6499 H        97        0    0.0000
   1479 H         194.2114  203.7103  107.0280 H        97        0    0.0000
   1480 H         193.6756  202.4158  108.0911 H        97        0    0.0000
   1481 H         196.5581  202.3354  105.5258 H        97        0    0.0000
   1482 H         194.8592  201.8761  105.5555 H        97        0    0.0000
   1483 H         195.2808  199.6814  106.2236 H        97        0    0.0000
   1484 H         197.7496  198.9689  105.4218 H        97        0    0.0000
   1485 H         196.4764  199.3443  104.2674 H        97        0    0.0000
   1486 C         201.5059  199.6715  104.9680 C.3      98        0    0.0000
   1487 C         200.0080  199.4324  104.8551 C.3      98        0    0.0000
   1488 C         199.4286  200.8465  104.9305 C.3      98        0    0.0000
   1489 C         197.9776  200.9023  104.4462 C.3      98        0    0.0000
   1490 C         200.4161  201.6911  104.1045 C.3      98        0    0.0000
   1491 C         201.7406  200.9007  104.0809 C.3      98        0    0.0000
   1492 C         202.9987  201.7147  104.4089 C.3      98        0    0.0000
   1493 H         202.0843  198.8063  104.6291 H        98        0    0.0000
   1494 H         201.7685  199.8609  106.0144 H        98        0    0.0000
   1495 H         199.7704  198.9579  103.8952 H        98        0    0.0000
   1496 H         199.6343  198.7887  105.6573 H        98        0    0.0000
   1497 H         199.4794  201.1841  105.9759 H        98        0    0.0000
   1498 H         197.5353  201.8760  104.6880 H        98        0    0.0000
   1499 H         197.9565  200.8098  103.3538 H        98        0    0.0000
   1500 H         200.0608  201.8230  103.0749 H        98        0    0.0000
   1501 H         200.5213  202.6929  104.5341 H        98        0    0.0000
   1502 H         201.8687  200.5341  103.0515 H        98        0    0.0000
   1503 H         203.7458  201.0524  104.8621 H        98        0    0.0000
   1504 H         202.7477  202.4685  105.1646 H        98        0    0.0000
   1505 C         207.4143  202.6632  103.3780 C.3      99        0    0.0000
   1506 C         206.1211  201.9563  103.7543 C.3      99        0    0.0000
   1507 C         205.0393  202.9984  103.4432 C.3      99        0    0.0000
   1508 C         203.6379  202.4307  103.1845 C.3      99        0    0.0000
   1509 C         205.6173  203.8749  102.3130 C.3      99        0    0.0000
   1510 C         207.0510  203.3689  102.0699 C.3      99        0    0.0000
   1511 C         208.0609  204.4588  101.7024 C.3      99        0    0.0000
   1512 H         207.6914  203.3867  104.1544 H        99        0    0.0000
   1513 H         208.2437  201.9604  103.2527 H        99        0    0.0000
   1514 H         206.0091  201.0509  103.1483 H        99        0    0.0000
   1515 H         206.1102  201.6577  104.8073 H        99        0    0.0000
   1516 H         204.9525  203.6455  104.3287 H        99        0    0.0000
   1517 H         202.9761  203.2466  102.8704 H        99        0    0.0000
   1518 H         203.6862  201.7253  102.3466 H        99        0    0.0000
   1519 H         205.6162  204.9228  102.6381 H        99        0    0.0000
   1520 H         205.0295  203.8288  101.3903 H        99        0    0.0000
   1521 H         207.0177  202.6151  101.2698 H        99        0    0.0000
   1522 H         208.5104  204.8794  102.6097 H        99        0    0.0000
   1523 H         208.8789  204.0143  101.1231 H        99        0    0.0000
   1524 C         209.7538  208.2599   99.8694 C.3     100        0    0.0000
   1525 C         209.6027  206.8926  100.5344 C.3     100        0    0.0000
   1526 C         208.4092  206.2005   99.8535 C.3     100        0    0.0000
   1527 C         207.4239  205.6051  100.8678 C.3     100        0    0.0000
   1528 C         207.7979  207.2787   98.9454 C.3     100        0    0.0000
   1529 C         208.9769  208.1781   98.5529 C.3     100        0    0.0000
   1530 C         209.8453  207.6175   97.4118 C.3     100        0    0.0000
   1531 H         209.2940  209.0204  100.5135 H       100        0    0.0000
   1532 H         210.8037  208.5397   99.7377 H       100        0    0.0000
   1533 H         209.4694  207.0065  101.6158 H       100        0    0.0000
   1534 H         210.5095  206.2953  100.3829 H       100        0    0.0000
   1535 H         208.8040  205.3926   99.2213 H       100        0    0.0000
   1536 H         206.5277  205.2351  100.3563 H       100        0    0.0000
   1537 H         207.0932  206.3922  101.5562 H       100        0    0.0000
   1538 H         207.2825  206.8450   98.0829 H       100        0    0.0000
   1539 H         207.0625  207.8737   99.5026 H       100        0    0.0000
   1540 H         208.6149  209.1762   98.2748 H       100        0    0.0000
   1541 H         210.8021  207.2408   97.7889 H       100        0    0.0000
   1542 H         210.0819  208.4250   96.7083 H       100        0    0.0000
   1543 C         212.2132  206.4764   94.6507 C.3     101        0    0.0000
   1544 C         211.3741  205.7410   95.6946 C.3     101        0    0.0000
   1545 C         209.9017  206.0562   95.3785 C.3     101        0    0.0000
   1546 C         209.1181  206.4914   96.6238 C.3     101        0    0.0000
   1547 C         209.9585  207.1198   94.2711 C.3     101        0    0.0000
   1548 C         211.2561  206.8254   93.5080 C.3     101        0    0.0000
   1549 C         211.1418  205.6771   92.4888 C.3     101        0    0.0000
   1550 H         212.5991  207.4032   95.0945 H       101        0    0.0000
   1551 H         213.0780  205.8878   94.3288 H       101        0    0.0000
   1552 H         211.6681  206.0460   96.7049 H       101        0    0.0000
   1553 H         211.5422  204.6600   95.6228 H       101        0    0.0000
   1554 H         209.4431  205.1460   94.9670 H       101        0    0.0000
   1555 H         208.9434  205.6333   97.2831 H       101        0    0.0000
   1556 H         208.1320  206.8627   96.3196 H       101        0    0.0000
   1557 H         209.0698  207.0957   93.6330 H       101        0    0.0000
   1558 H         210.0204  208.1240   94.7104 H       101        0    0.0000
   1559 H         211.6070  207.7301   92.9953 H       101        0    0.0000
   1560 H         211.8439  204.8689   92.7202 H       101        0    0.0000
   1561 H         211.4108  206.0502   91.4932 H       101        0    0.0000
   1562 C         207.5818  207.5101   94.4066 C.3     102        0    0.0000
   1563 C         208.3031  206.1810   94.2428 C.3     102        0    0.0000
   1564 C         208.6330  206.1519   92.7491 C.3     102        0    0.0000
   1565 C         209.6979  205.1048   92.4135 C.3     102        0    0.0000
   1566 C         209.0365  207.6042   92.4350 C.3     102        0    0.0000
   1567 C         208.4045  208.4734   93.5417 C.3     102        0    0.0000
   1568 C         207.6538  209.7185   93.0525 C.3     102        0    0.0000
   1569 H         207.5459  207.8292   95.4530 H       102        0    0.0000
   1570 H         206.5505  207.4132   94.0505 H       102        0    0.0000
   1571 H         209.2163  206.1672   94.8503 H       102        0    0.0000
   1572 H         207.6776  205.3355   94.5451 H       102        0    0.0000
   1573 H         207.7093  205.9254   92.1968 H       102        0    0.0000
   1574 H         209.6131  204.2481   93.0924 H       102        0    0.0000
   1575 H         209.5233  204.7222   91.4008 H       102        0    0.0000
   1576 H         210.1262  207.7281   92.4626 H       102        0    0.0000
   1577 H         208.7109  207.8868   91.4284 H       102        0    0.0000
   1578 H         209.2337  208.8375   94.1664 H       102        0    0.0000
   1579 H         208.3455  210.3551   92.4882 H       102        0    0.0000
   1580 H         207.3282  210.3020   93.9220 H       102        0    0.0000
   1581 H         206.7845  209.5047   92.4306 H       102        0    0.0000
   1582 H         245.7531  148.7840  178.9118 H         0        0    0.0000
@<TRIPOS>BOND
     1     1     2      1
     2     1     6      1
     3     1     8      1
     4     1     9      1
     5     2     3      1
     6     2    10      1
     7     2    11      1
     8     3     4      1
     9     3     5      1
    10     3    12      1
    11     4    13      1
    12     4    14      1
    13     4  1582      H
    14     5     6      1
    15     5    15      1
    16     5    16      1
    17     6     7      1
    18     6    17      1
    19     7    18      1
    20     7    19      1
    21     7    23      1
    22    20    21      1
    23    20    25      1
    24    20    27      1
    25    20    28      1
    26    21    22      1
    27    21    29      1
    28    21    30      1
    29    22    23      1
    30    22    24      1
    31    22    31      1
    32    23    32      1
    33    23    33      1
    34    24    25      1
    35    24    34      1
    36    24    35      1
    37    25    26      1
    38    25    36      1
    39    26    37      1
    40    26    38      1
    41    26    39      1
    42    39    40      1
    43    39    41      1
    44    39    42      1
    45    40    43      1
    46    40    44      1
    47    40    48      1
    48    45    46      1
    49    45    50      1
    50    45    52      1
    51    45    53      1
    52    46    47      1
    53    46    54      1
    54    46    55      1
    55    47    48      1
    56    47    49      1
    57    47    56      1
    58    48    57      1
    59    48    58      1
    60    49    50      1
    61    49    59      1
    62    49    60      1
    63    50    51      1
    64    50    61      1
    65    51    62      1
    66    51    63      1
    67    51    64      1
    68    64    65      1
    69    64    66      1
    70    64    67      1
    71    65    68      1
    72    65    69      1
    73    65    73      1
    74    70    71      1
    75    70    75      1
    76    70    77      1
    77    70    78      1
    78    71    72      1
    79    71    79      1
    80    71    80      1
    81    72    73      1
    82    72    74      1
    83    72    81      1
    84    73    82      1
    85    73    83      1
    86    74    75      1
    87    74    84      1
    88    74    85      1
    89    75    76      1
    90    75    86      1
    91    76    87      1
    92    76    88      1
    93    76    92      1
    94    89    90      1
    95    89    94      1
    96    89    96      1
    97    89    97      1
    98    90    91      1
    99    90    98      1
   100    90    99      1
   101    91    92      1
   102    91    93      1
   103    91   100      1
   104    92   101      1
   105    92   102      1
   106    93    94      1
   107    93   103      1
   108    93   104      1
   109    94    95      1
   110    94   105      1
   111    95   106      1
   112    95   107      1
   113    95   108      1
   114   108   109      1
   115   108   110      1
   116   108   111      1
   117   109   112      1
   118   109   113      1
   119   109   114      1
   120   114   115      1
   121   114   116      1
   122   114   117      1
   123   115   118      1
   124   115   119      1
   125   115   120      1
   126   120   121      1
   127   120   122      1
   128   120   123      1
   129   121   124      1
   130   121   125      1
   131   121   126      1
   132   126   127      1
   133   126   128      1
   134   126   129      1
   135   127   130      1
   136   127   131      1
   137   127   135      1
   138   132   133      1
   139   132   137      1
   140   132   139      1
   141   132   140      1
   142   133   134      1
   143   133   141      1
   144   133   142      1
   145   134   135      1
   146   134   136      1
   147   134   143      1
   148   135   144      1
   149   135   145      1
   150   136   137      1
   151   136   146      1
   152   136   147      1
   153   137   138      1
   154   137   148      1
   155   138   149      1
   156   138   150      1
   157   138   154      1
   158   151   152      1
   159   151   156      1
   160   151   158      1
   161   151   159      1
   162   152   153      1
   163   152   160      1
   164   152   161      1
   165   153   154      1
   166   153   155      1
   167   153   162      1
   168   154   163      1
   169   154   164      1
   170   155   156      1
   171   155   165      1
   172   155   166      1
   173   156   157      1
   174   156   167      1
   175   157   168      1
   176   157   169      1
   177   157   170      1
   178   170   171      1
   179   170   172      1
   180   170   173      1
   181   171   174      1
   182   171   175      1
   183   171   179      1
   184   176   177      1
   185   176   181      1
   186   176   183      1
   187   176   184      1
   188   177   178      1
   189   177   185      1
   190   177   186      1
   191   178   179      1
   192   178   180      1
   193   178   187      1
   194   179   188      1
   195   179   189      1
   196   180   181      1
   197   180   190      1
   198   180   191      1
   199   181   182      1
   200   181   192      1
   201   182   193      1
   202   182   194      1
   203   182   195      1
   204   195   196      1
   205   195   197      1
   206   195   198      1
   207   196   199      1
   208   196   200      1
   209   196   204      1
   210   201   202      1
   211   201   206      1
   212   201   208      1
   213   201   209      1
   214   202   203      1
   215   202   210      1
   216   202   211      1
   217   203   204      1
   218   203   205      1
   219   203   212      1
   220   204   213      1
   221   204   214      1
   222   205   206      1
   223   205   215      1
   224   205   216      1
   225   206   207      1
   226   206   217      1
   227   207   218      1
   228   207   219      1
   229   207   223      1
   230   220   221      1
   231   220   225      1
   232   220   227      1
   233   220   228      1
   234   221   222      1
   235   221   229      1
   236   221   230      1
   237   222   223      1
   238   222   224      1
   239   222   231      1
   240   223   232      1
   241   223   233      1
   242   224   225      1
   243   224   234      1
   244   224   235      1
   245   225   226      1
   246   225   236      1
   247   226   237      1
   248   226   238      1
   249   226   242      1
   250   239   240      1
   251   239   244      1
   252   239   246      1
   253   239   247      1
   254   240   241      1
   255   240   248      1
   256   240   249      1
   257   241   242      1
   258   241   243      1
   259   241   250      1
   260   242   251      1
   261   242   252      1
   262   243   244      1
   263   243   253      1
   264   243   254      1
   265   244   245      1
   266   244   255      1
   267   245   256      1
   268   245   257      1
   269   245   261      1
   270   258   259      1
   271   258   263      1
   272   258   265      1
   273   258   266      1
   274   259   260      1
   275   259   267      1
   276   259   268      1
   277   260   261      1
   278   260   262      1
   279   260   269      1
   280   261   270      1
   281   261   271      1
   282   262   263      1
   283   262   272      1
   284   262   273      1
   285   263   264      1
   286   263   274      1
   287   264   275      1
   288   264   276      1
   289   264   277      1
   290   277   278      1
   291   277   279      1
   292   277   280      1
   293   278   281      1
   294   278   282      1
   295   278   286      1
   296   283   284      1
   297   283   288      1
   298   283   290      1
   299   283   291      1
   300   284   285      1
   301   284   292      1
   302   284   293      1
   303   285   286      1
   304   285   287      1
   305   285   294      1
   306   286   295      1
   307   286   296      1
   308   287   288      1
   309   287   297      1
   310   287   298      1
   311   288   289      1
   312   288   299      1
   313   289   300      1
   314   289   301      1
   315   289   305      1
   316   302   303      1
   317   302   307      1
   318   302   309      1
   319   302   310      1
   320   303   304      1
   321   303   311      1
   322   303   312      1
   323   304   305      1
   324   304   306      1
   325   304   313      1
   326   305   314      1
   327   305   315      1
   328   306   307      1
   329   306   316      1
   330   306   317      1
   331   307   308      1
   332   307   318      1
   333   308   319      1
   334   308   320      1
   335   308   324      1
   336   321   322      1
   337   321   326      1
   338   321   328      1
   339   321   329      1
   340   322   323      1
   341   322   330      1
   342   322   331      1
   343   323   324      1
   344   323   325      1
   345   323   332      1
   346   324   333      1
   347   324   334      1
   348   325   326      1
   349   325   335      1
   350   325   336      1
   351   326   327      1
   352   326   337      1
   353   327   338      1
   354   327   339      1
   355   327   343      1
   356   340   341      1
   357   340   345      1
   358   340   347      1
   359   340   348      1
   360   341   342      1
   361   341   349      1
   362   341   350      1
   363   342   343      1
   364   342   344      1
   365   342   351      1
   366   343   352      1
   367   343   353      1
   368   344   345      1
   369   344   354      1
   370   344   355      1
   371   345   346      1
   372   345   356      1
   373   346   357      1
   374   346   358      1
   375   346   362      1
   376   359   360      1
   377   359   364      1
   378   359   366      1
   379   359   367      1
   380   360   361      1
   381   360   368      1
   382   360   369      1
   383   361   362      1
   384   361   363      1
   385   361   370      1
   386   362   371      1
   387   362   372      1
   388   363   364      1
   389   363   373      1
   390   363   374      1
   391   364   365      1
   392   364   375      1
   393   365   376      1
   394   365   377      1
   395   365   381      1
   396   378   379      1
   397   378   383      1
   398   378   385      1
   399   378   386      1
   400   379   380      1
   401   379   387      1
   402   379   388      1
   403   380   381      1
   404   380   382      1
   405   380   389      1
   406   381   390      1
   407   381   391      1
   408   382   383      1
   409   382   392      1
   410   382   393      1
   411   383   384      1
   412   383   394      1
   413   384   395      1
   414   384   396      1
   415   384   397      1
   416   397   398      1
   417   397   399      1
   418   397   400      1
   419   398   401      1
   420   398   402      1
   421   398   406      1
   422   403   404      1
   423   403   408      1
   424   403   410      1
   425   403   411      1
   426   404   405      1
   427   404   412      1
   428   404   413      1
   429   405   406      1
   430   405   407      1
   431   405   414      1
   432   406   415      1
   433   406   416      1
   434   407   408      1
   435   407   417      1
   436   407   418      1
   437   408   409      1
   438   408   419      1
   439   409   420      1
   440   409   421      1
   441   409   425      1
   442   422   423      1
   443   422   427      1
   444   422   429      1
   445   422   430      1
   446   423   424      1
   447   423   431      1
   448   423   432      1
   449   424   425      1
   450   424   426      1
   451   424   433      1
   452   425   434      1
   453   425   435      1
   454   426   427      1
   455   426   436      1
   456   426   437      1
   457   427   428      1
   458   427   438      1
   459   428   439      1
   460   428   440      1
   461   428   444      1
   462   441   442      1
   463   441   446      1
   464   441   448      1
   465   441   449      1
   466   442   443      1
   467   442   450      1
   468   442   451      1
   469   443   444      1
   470   443   445      1
   471   443   452      1
   472   444   453      1
   473   444   454      1
   474   445   446      1
   475   445   455      1
   476   445   456      1
   477   446   447      1
   478   446   457      1
   479   447   458      1
   480   447   459      1
   481   447   463      1
   482   460   461      1
   483   460   465      1
   484   460   467      1
   485   460   468      1
   486   461   462      1
   487   461   469      1
   488   461   470      1
   489   462   463      1
   490   462   464      1
   491   462   471      1
   492   463   472      1
   493   463   473      1
   494   464   465      1
   495   464   474      1
   496   464   475      1
   497   465   466      1
   498   465   476      1
   499   466   477      1
   500   466   478      1
   501   466   479      1
   502   479   480      1
   503   479   481      1
   504   479   482      1
   505   480   483      1
   506   480   484      1
   507   480   488      1
   508   485   486      1
   509   485   490      1
   510   485   492      1
   511   485   493      1
   512   486   487      1
   513   486   494      1
   514   486   495      1
   515   487   488      1
   516   487   489      1
   517   487   496      1
   518   488   497      1
   519   488   498      1
   520   489   490      1
   521   489   499      1
   522   489   500      1
   523   490   491      1
   524   490   501      1
   525   491   502      1
   526   491   503      1
   527   491   507      1
   528   504   505      1
   529   504   509      1
   530   504   511      1
   531   504   512      1
   532   505   506      1
   533   505   513      1
   534   505   514      1
   535   506   507      1
   536   506   508      1
   537   506   515      1
   538   507   516      1
   539   507   517      1
   540   508   509      1
   541   508   518      1
   542   508   519      1
   543   509   510      1
   544   509   520      1
   545   510   521      1
   546   510   522      1
   547   510   526      1
   548   523   524      1
   549   523   528      1
   550   523   530      1
   551   523   531      1
   552   524   525      1
   553   524   532      1
   554   524   533      1
   555   525   526      1
   556   525   527      1
   557   525   534      1
   558   526   535      1
   559   526   536      1
   560   527   528      1
   561   527   537      1
   562   527   538      1
   563   528   529      1
   564   528   539      1
   565   529   540      1
   566   529   541      1
   567   529   545      1
   568   542   543      1
   569   542   547      1
   570   542   549      1
   571   542   550      1
   572   543   544      1
   573   543   551      1
   574   543   552      1
   575   544   545      1
   576   544   546      1
   577   544   553      1
   578   545   554      1
   579   545   555      1
   580   546   547      1
   581   546   556      1
   582   546   557      1
   583   547   548      1
   584   547   558      1
   585   548   559      1
   586   548   560      1
   587   548   564      1
   588   561   562      1
   589   561   566      1
   590   561   568      1
   591   561   569      1
   592   562   563      1
   593   562   570      1
   594   562   571      1
   595   563   564      1
   596   563   565      1
   597   563   572      1
   598   564   573      1
   599   564   574      1
   600   565   566      1
   601   565   575      1
   602   565   576      1
   603   566   567      1
   604   566   577      1
   605   567   578      1
   606   567   579      1
   607   567   583      1
   608   580   581      1
   609   580   585      1
   610   580   587      1
   611   580   588      1
   612   581   582      1
   613   581   589      1
   614   581   590      1
   615   582   583      1
   616   582   584      1
   617   582   591      1
   618   583   592      1
   619   583   593      1
   620   584   585      1
   621   584   594      1
   622   584   595      1
   623   585   586      1
   624   585   596      1
   625   586   597      1
   626   586   598      1
   627   586   602      1
   628   599   600      1
   629   599   604      1
   630   599   606      1
   631   599   607      1
   632   600   601      1
   633   600   608      1
   634   600   609      1
   635   601   602      1
   636   601   603      1
   637   601   610      1
   638   602   611      1
   639   602   612      1
   640   603   604      1
   641   603   613      1
   642   603   614      1
   643   604   605      1
   644   604   615      1
   645   605   616      1
   646   605   617      1
   647   605   621      1
   648   618   619      1
   649   618   623      1
   650   618   625      1
   651   618   626      1
   652   619   620      1
   653   619   627      1
   654   619   628      1
   655   620   621      1
   656   620   622      1
   657   620   629      1
   658   621   630      1
   659   621   631      1
   660   622   623      1
   661   622   632      1
   662   622   633      1
   663   623   624      1
   664   623   634      1
   665   624   635      1
   666   624   636      1
   667   624   640      1
   668   637   638      1
   669   637   642      1
   670   637   644      1
   671   637   645      1
   672   638   639      1
   673   638   646      1
   674   638   647      1
   675   639   640      1
   676   639   641      1
   677   639   648      1
   678   640   649      1
   679   640   650      1
   680   641   642      1
   681   641   651      1
   682   641   652      1
   683   642   643      1
   684   642   653      1
   685   643   654      1
   686   643   655      1
   687   643   659      1
   688   656   657      1
   689   656   661      1
   690   656   663      1
   691   656   664      1
   692   657   658      1
   693   657   665      1
   694   657   666      1
   695   658   659      1
   696   658   660      1
   697   658   667      1
   698   659   668      1
   699   659   669      1
   700   660   661      1
   701   660   670      1
   702   660   671      1
   703   661   662      1
   704   661   672      1
   705   662   673      1
   706   662   674      1
   707   662   675      1
   708   675   676      1
   709   675   677      1
   710   675   678      1
   711   676   679      1
   712   676   680      1
   713   676   684      1
   714   681   682      1
   715   681   686      1
   716   681   688      1
   717   681   689      1
   718   682   683      1
   719   682   690      1
   720   682   691      1
   721   683   684      1
   722   683   685      1
   723   683   692      1
   724   684   693      1
   725   684   694      1
   726   685   686      1
   727   685   695      1
   728   685   696      1
   729   686   687      1
   730   686   697      1
   731   687   698      1
   732   687   699      1
   733   687   703      1
   734   700   701      1
   735   700   705      1
   736   700   707      1
   737   700   708      1
   738   701   702      1
   739   701   709      1
   740   701   710      1
   741   702   703      1
   742   702   704      1
   743   702   711      1
   744   703   712      1
   745   703   713      1
   746   704   705      1
   747   704   714      1
   748   704   715      1
   749   705   706      1
   750   705   716      1
   751   706   717      1
   752   706   718      1
   753   706   722      1
   754   719   720      1
   755   719   724      1
   756   719   726      1
   757   719   727      1
   758   720   721      1
   759   720   728      1
   760   720   729      1
   761   721   722      1
   762   721   723      1
   763   721   730      1
   764   722   731      1
   765   722   732      1
   766   723   724      1
   767   723   733      1
   768   723   734      1
   769   724   725      1
   770   724   735      1
   771   725   736      1
   772   725   737      1
   773   725   741      1
   774   738   739      1
   775   738   743      1
   776   738   745      1
   777   738   746      1
   778   739   740      1
   779   739   747      1
   780   739   748      1
   781   740   741      1
   782   740   742      1
   783   740   749      1
   784   741   750      1
   785   741   751      1
   786   742   743      1
   787   742   752      1
   788   742   753      1
   789   743   744      1
   790   743   754      1
   791   744   755      1
   792   744   756      1
   793   744   760      1
   794   757   758      1
   795   757   762      1
   796   757   764      1
   797   757   765      1
   798   758   759      1
   799   758   766      1
   800   758   767      1
   801   759   760      1
   802   759   761      1
   803   759   768      1
   804   760   769      1
   805   760   770      1
   806   761   762      1
   807   761   771      1
   808   761   772      1
   809   762   763      1
   810   762   773      1
   811   763   774      1
   812   763   775      1
   813   763   779      1
   814   776   777      1
   815   776   781      1
   816   776   783      1
   817   776   784      1
   818   777   778      1
   819   777   785      1
   820   777   786      1
   821   778   779      1
   822   778   780      1
   823   778   787      1
   824   779   788      1
   825   779   789      1
   826   780   781      1
   827   780   790      1
   828   780   791      1
   829   781   782      1
   830   781   792      1
   831   782   793      1
   832   782   794      1
   833   782   795      1
   834   795   796      1
   835   795   797      1
   836   795   798      1
   837   796   799      1
   838   796   800      1
   839   796   804      1
   840   801   802      1
   841   801   806      1
   842   801   808      1
   843   801   809      1
   844   802   803      1
   845   802   810      1
   846   802   811      1
   847   803   804      1
   848   803   805      1
   849   803   812      1
   850   804   813      1
   851   804   814      1
   852   805   806      1
   853   805   815      1
   854   805   816      1
   855   806   807      1
   856   806   817      1
   857   807   818      1
   858   807   819      1
   859   807   823      1
   860   820   821      1
   861   820   825      1
   862   820   827      1
   863   820   828      1
   864   821   822      1
   865   821   829      1
   866   821   830      1
   867   822   823      1
   868   822   824      1
   869   822   831      1
   870   823   832      1
   871   823   833      1
   872   824   825      1
   873   824   834      1
   874   824   835      1
   875   825   826      1
   876   825   836      1
   877   826   837      1
   878   826   838      1
   879   826   839      1
   880   839   840      1
   881   839   841      1
   882   839   842      1
   883   840   843      1
   884   840   844      1
   885   840   848      1
   886   845   846      1
   887   845   850      1
   888   845   852      1
   889   845   853      1
   890   846   847      1
   891   846   854      1
   892   846   855      1
   893   847   848      1
   894   847   849      1
   895   847   856      1
   896   848   857      1
   897   848   858      1
   898   849   850      1
   899   849   859      1
   900   849   860      1
   901   850   851      1
   902   850   861      1
   903   851   862      1
   904   851   863      1
   905   851   867      1
   906   864   865      1
   907   864   869      1
   908   864   871      1
   909   864   872      1
   910   865   866      1
   911   865   873      1
   912   865   874      1
   913   866   867      1
   914   866   868      1
   915   866   875      1
   916   867   876      1
   917   867   877      1
   918   868   869      1
   919   868   878      1
   920   868   879      1
   921   869   870      1
   922   869   880      1
   923   870   881      1
   924   870   882      1
   925   870   883      1
   926   883   884      1
   927   883   885      1
   928   883   886      1
   929   884   887      1
   930   884   888      1
   931   884   892      1
   932   889   890      1
   933   889   894      1
   934   889   896      1
   935   889   897      1
   936   890   891      1
   937   890   898      1
   938   890   899      1
   939   891   892      1
   940   891   893      1
   941   891   900      1
   942   892   901      1
   943   892   902      1
   944   893   894      1
   945   893   903      1
   946   893   904      1
   947   894   895      1
   948   894   905      1
   949   895   906      1
   950   895   907      1
   951   895   908      1
   952   908   909      1
   953   908   910      1
   954   908   911      1
   955   909   912      1
   956   909   913      1
   957   909   917      1
   958   914   915      1
   959   914   919      1
   960   914   921      1
   961   914   922      1
   962   915   916      1
   963   915   923      1
   964   915   924      1
   965   916   917      1
   966   916   918      1
   967   916   925      1
   968   917   926      1
   969   917   927      1
   970   918   919      1
   971   918   928      1
   972   918   929      1
   973   919   920      1
   974   919   930      1
   975   920   931      1
   976   920   932      1
   977   920   936      1
   978   933   934      1
   979   933   938      1
   980   933   940      1
   981   933   941      1
   982   934   935      1
   983   934   942      1
   984   934   943      1
   985   935   936      1
   986   935   937      1
   987   935   944      1
   988   936   945      1
   989   936   946      1
   990   937   938      1
   991   937   947      1
   992   937   948      1
   993   938   939      1
   994   938   949      1
   995   939   950      1
   996   939   951      1
   997   939   955      1
   998   952   953      1
   999   952   957      1
  1000   952   959      1
  1001   952   960      1
  1002   953   954      1
  1003   953   961      1
  1004   953   962      1
  1005   954   955      1
  1006   954   956      1
  1007   954   963      1
  1008   955   964      1
  1009   955   965      1
  1010   956   957      1
  1011   956   966      1
  1012   956   967      1
  1013   957   958      1
  1014   957   968      1
  1015   958   969      1
  1016   958   970      1
  1017   958   971      1
  1018   971   972      1
  1019   971   973      1
  1020   971   974      1
  1021   972   975      1
  1022   972   976      1
  1023   972   980      1
  1024   977   978      1
  1025   977   982      1
  1026   977   984      1
  1027   977   985      1
  1028   978   979      1
  1029   978   986      1
  1030   978   987      1
  1031   979   980      1
  1032   979   981      1
  1033   979   988      1
  1034   980   989      1
  1035   980   990      1
  1036   981   982      1
  1037   981   991      1
  1038   981   992      1
  1039   982   983      1
  1040   982   993      1
  1041   983   994      1
  1042   983   995      1
  1043   983   999      1
  1044   996   997      1
  1045   996  1001      1
  1046   996  1003      1
  1047   996  1004      1
  1048   997   998      1
  1049   997  1005      1
  1050   997  1006      1
  1051   998   999      1
  1052   998  1000      1
  1053   998  1007      1
  1054   999  1008      1
  1055   999  1009      1
  1056  1000  1001      1
  1057  1000  1010      1
  1058  1000  1011      1
  1059  1001  1002      1
  1060  1001  1012      1
  1061  1002  1013      1
  1062  1002  1014      1
  1063  1002  1015      1
  1064  1015  1016      1
  1065  1015  1017      1
  1066  1015  1018      1
  1067  1016  1019      1
  1068  1016  1020      1
  1069  1016  1024      1
  1070  1021  1022      1
  1071  1021  1026      1
  1072  1021  1028      1
  1073  1021  1029      1
  1074  1022  1023      1
  1075  1022  1030      1
  1076  1022  1031      1
  1077  1023  1024      1
  1078  1023  1025      1
  1079  1023  1032      1
  1080  1024  1033      1
  1081  1024  1034      1
  1082  1025  1026      1
  1083  1025  1035      1
  1084  1025  1036      1
  1085  1026  1027      1
  1086  1026  1037      1
  1087  1027  1038      1
  1088  1027  1039      1
  1089  1027  1043      1
  1090  1040  1041      1
  1091  1040  1045      1
  1092  1040  1047      1
  1093  1040  1048      1
  1094  1041  1042      1
  1095  1041  1049      1
  1096  1041  1050      1
  1097  1042  1043      1
  1098  1042  1044      1
  1099  1042  1051      1
  1100  1043  1052      1
  1101  1043  1053      1
  1102  1044  1045      1
  1103  1044  1054      1
  1104  1044  1055      1
  1105  1045  1046      1
  1106  1045  1056      1
  1107  1046  1057      1
  1108  1046  1058      1
  1109  1046  1059      1
  1110  1059  1060      1
  1111  1059  1061      1
  1112  1059  1062      1
  1113  1060  1063      1
  1114  1060  1064      1
  1115  1060  1068      1
  1116  1065  1066      1
  1117  1065  1070      1
  1118  1065  1072      1
  1119  1065  1073      1
  1120  1066  1067      1
  1121  1066  1074      1
  1122  1066  1075      1
  1123  1067  1068      1
  1124  1067  1069      1
  1125  1067  1076      1
  1126  1068  1077      1
  1127  1068  1078      1
  1128  1069  1070      1
  1129  1069  1079      1
  1130  1069  1080      1
  1131  1070  1071      1
  1132  1070  1081      1
  1133  1071  1082      1
  1134  1071  1083      1
  1135  1071  1087      1
  1136  1084  1085      1
  1137  1084  1089      1
  1138  1084  1091      1
  1139  1084  1092      1
  1140  1085  1086      1
  1141  1085  1093      1
  1142  1085  1094      1
  1143  1086  1087      1
  1144  1086  1088      1
  1145  1086  1095      1
  1146  1087  1096      1
  1147  1087  1097      1
  1148  1088  1089      1
  1149  1088  1098      1
  1150  1088  1099      1
  1151  1089  1090      1
  1152  1089  1100      1
  1153  1090  1101      1
  1154  1090  1102      1
  1155  1090  1103      1
  1156  1103  1104      1
  1157  1103  1105      1
  1158  1103  1106      1
  1159  1104  1107      1
  1160  1104  1108      1
  1161  1104  1109      1
  1162  1109  1110      1
  1163  1109  1111      1
  1164  1109  1112      1
  1165  1110  1113      1
  1166  1110  1114      1
  1167  1110  1118      1
  1168  1115  1116      1
  1169  1115  1120      1
  1170  1115  1122      1
  1171  1115  1123      1
  1172  1116  1117      1
  1173  1116  1124      1
  1174  1116  1125      1
  1175  1117  1118      1
  1176  1117  1119      1
  1177  1117  1126      1
  1178  1118  1127      1
  1179  1118  1128      1
  1180  1119  1120      1
  1181  1119  1129      1
  1182  1119  1130      1
  1183  1120  1121      1
  1184  1120  1131      1
  1185  1121  1132      1
  1186  1121  1133      1
  1187  1121  1137      1
  1188  1134  1135      1
  1189  1134  1139      1
  1190  1134  1141      1
  1191  1134  1142      1
  1192  1135  1136      1
  1193  1135  1143      1
  1194  1135  1144      1
  1195  1136  1137      1
  1196  1136  1138      1
  1197  1136  1145      1
  1198  1137  1146      1
  1199  1137  1147      1
  1200  1138  1139      1
  1201  1138  1148      1
  1202  1138  1149      1
  1203  1139  1140      1
  1204  1139  1150      1
  1205  1140  1151      1
  1206  1140  1152      1
  1207  1140  1153      1
  1208  1153  1154      1
  1209  1153  1155      1
  1210  1153  1156      1
  1211  1154  1157      1
  1212  1154  1158      1
  1213  1154  1162      1
  1214  1159  1160      1
  1215  1159  1164      1
  1216  1159  1166      1
  1217  1159  1167      1
  1218  1160  1161      1
  1219  1160  1168      1
  1220  1160  1169      1
  1221  1161  1162      1
  1222  1161  1163      1
  1223  1161  1170      1
  1224  1162  1171      1
  1225  1162  1172      1
  1226  1163  1164      1
  1227  1163  1173      1
  1228  1163  1174      1
  1229  1164  1165      1
  1230  1164  1175      1
  1231  1165  1176      1
  1232  1165  1177      1
  1233  1165  1181      1
  1234  1178  1179      1
  1235  1178  1183      1
  1236  1178  1185      1
  1237  1178  1186      1
  1238  1179  1180      1
  1239  1179  1187      1
  1240  1179  1188      1
  1241  1180  1181      1
  1242  1180  1182      1
  1243  1180  1189      1
  1244  1181  1190      1
  1245  1181  1191      1
  1246  1182  1183      1
  1247  1182  1192      1
  1248  1182  1193      1
  1249  1183  1184      1
  1250  1183  1194      1
  1251  1184  1195      1
  1252  1184  1196      1
  1253  1184  1200      1
  1254  1197  1198      1
  1255  1197  1202      1
  1256  1197  1204      1
  1257  1197  1205      1
  1258  1198  1199      1
  1259  1198  1206      1
  1260  1198  1207      1
  1261  1199  1200      1
  1262  1199  1201      1
  1263  1199  1208      1
  1264  1200  1209      1
  1265  1200  1210      1
  1266  1201  1202      1
  1267  1201  1211      1
  1268  1201  1212      1
  1269  1202  1203      1
  1270  1202  1213      1
  1271  1203  1214      1
  1272  1203  1215      1
  1273  1203  1219      1
  1274  1216  1217      1
  1275  1216  1221      1
  1276  1216  1223      1
  1277  1216  1224      1
  1278  1217  1218      1
  1279  1217  1225      1
  1280  1217  1226      1
  1281  1218  1219      1
  1282  1218  1220      1
  1283  1218  1227      1
  1284  1219  1228      1
  1285  1219  1229      1
  1286  1220  1221      1
  1287  1220  1230      1
  1288  1220  1231      1
  1289  1221  1222      1
  1290  1221  1232      1
  1291  1222  1233      1
  1292  1222  1234      1
  1293  1222  1235      1
  1294  1235  1236      1
  1295  1235  1237      1
  1296  1235  1238      1
  1297  1236  1239      1
  1298  1236  1240      1
  1299  1236  1244      1
  1300  1241  1242      1
  1301  1241  1246      1
  1302  1241  1248      1
  1303  1241  1249      1
  1304  1242  1243      1
  1305  1242  1250      1
  1306  1242  1251      1
  1307  1243  1244      1
  1308  1243  1245      1
  1309  1243  1252      1
  1310  1244  1253      1
  1311  1244  1254      1
  1312  1245  1246      1
  1313  1245  1255      1
  1314  1245  1256      1
  1315  1246  1247      1
  1316  1246  1257      1
  1317  1247  1258      1
  1318  1247  1259      1
  1319  1247  1260      1
  1320  1260  1261      1
  1321  1260  1262      1
  1322  1260  1263      1
  1323  1261  1264      1
  1324  1261  1265      1
  1325  1261  1269      1
  1326  1266  1267      1
  1327  1266  1271      1
  1328  1266  1273      1
  1329  1266  1274      1
  1330  1267  1268      1
  1331  1267  1275      1
  1332  1267  1276      1
  1333  1268  1269      1
  1334  1268  1270      1
  1335  1268  1277      1
  1336  1269  1278      1
  1337  1269  1279      1
  1338  1270  1271      1
  1339  1270  1280      1
  1340  1270  1281      1
  1341  1271  1272      1
  1342  1271  1282      1
  1343  1272  1283      1
  1344  1272  1284      1
  1345  1272  1288      1
  1346  1285  1286      1
  1347  1285  1290      1
  1348  1285  1292      1
  1349  1285  1293      1
  1350  1286  1287      1
  1351  1286  1294      1
  1352  1286  1295      1
  1353  1287  1288      1
  1354  1287  1289      1
  1355  1287  1296      1
  1356  1288  1297      1
  1357  1288  1298      1
  1358  1289  1290      1
  1359  1289  1299      1
  1360  1289  1300      1
  1361  1290  1291      1
  1362  1290  1301      1
  1363  1291  1302      1
  1364  1291  1303      1
  1365  1291  1307      1
  1366  1304  1305      1
  1367  1304  1309      1
  1368  1304  1311      1
  1369  1304  1312      1
  1370  1305  1306      1
  1371  1305  1313      1
  1372  1305  1314      1
  1373  1306  1307      1
  1374  1306  1308      1
  1375  1306  1315      1
  1376  1307  1316      1
  1377  1307  1317      1
  1378  1308  1309      1
  1379  1308  1318      1
  1380  1308  1319      1
  1381  1309  1310      1
  1382  1309  1320      1
  1383  1310  1321      1
  1384  1310  1322      1
  1385  1310  1326      1
  1386  1323  1324      1
  1387  1323  1328      1
  1388  1323  1330      1
  1389  1323  1331      1
  1390  1324  1325      1
  1391  1324  1332      1
  1392  1324  1333      1
  1393  1325  1326      1
  1394  1325  1327      1
  1395  1325  1334      1
  1396  1326  1335      1
  1397  1326  1336      1
  1398  1327  1328      1
  1399  1327  1337      1
  1400  1327  1338      1
  1401  1328  1329      1
  1402  1328  1339      1
  1403  1329  1340      1
  1404  1329  1341      1
  1405  1329  1342      1
  1406  1342  1343      1
  1407  1342  1344      1
  1408  1342  1345      1
  1409  1343  1346      1
  1410  1343  1347      1
  1411  1343  1348      1
  1412  1348  1349      1
  1413  1348  1350      1
  1414  1348  1351      1
  1415  1349  1352      1
  1416  1349  1353      1
  1417  1349  1357      1
  1418  1354  1355      1
  1419  1354  1359      1
  1420  1354  1361      1
  1421  1354  1362      1
  1422  1355  1356      1
  1423  1355  1363      1
  1424  1355  1364      1
  1425  1356  1357      1
  1426  1356  1358      1
  1427  1356  1365      1
  1428  1357  1366      1
  1429  1357  1367      1
  1430  1358  1359      1
  1431  1358  1368      1
  1432  1358  1369      1
  1433  1359  1360      1
  1434  1359  1370      1
  1435  1360  1371      1
  1436  1360  1372      1
  1437  1360  1373      1
  1438  1373  1374      1
  1439  1373  1375      1
  1440  1373  1376      1
  1441  1374  1377      1
  1442  1374  1378      1
  1443  1374  1382      1
  1444  1379  1380      1
  1445  1379  1384      1
  1446  1379  1386      1
  1447  1379  1387      1
  1448  1380  1381      1
  1449  1380  1388      1
  1450  1380  1389      1
  1451  1381  1382      1
  1452  1381  1383      1
  1453  1381  1390      1
  1454  1382  1391      1
  1455  1382  1392      1
  1456  1383  1384      1
  1457  1383  1393      1
  1458  1383  1394      1
  1459  1384  1385      1
  1460  1384  1395      1
  1461  1385  1396      1
  1462  1385  1397      1
  1463  1385  1398      1
  1464  1398  1399      1
  1465  1398  1400      1
  1466  1398  1401      1
  1467  1399  1402      1
  1468  1399  1403      1
  1469  1399  1404      1
  1470  1404  1405      1
  1471  1404  1406      1
  1472  1404  1407      1
  1473  1405  1408      1
  1474  1405  1409      1
  1475  1405  1413      1
  1476  1410  1411      1
  1477  1410  1415      1
  1478  1410  1417      1
  1479  1410  1418      1
  1480  1411  1412      1
  1481  1411  1419      1
  1482  1411  1420      1
  1483  1412  1413      1
  1484  1412  1414      1
  1485  1412  1421      1
  1486  1413  1422      1
  1487  1413  1423      1
  1488  1414  1415      1
  1489  1414  1424      1
  1490  1414  1425      1
  1491  1415  1416      1
  1492  1415  1426      1
  1493  1416  1427      1
  1494  1416  1428      1
  1495  1416  1432      1
  1496  1429  1430      1
  1497  1429  1434      1
  1498  1429  1436      1
  1499  1429  1437      1
  1500  1430  1431      1
  1501  1430  1438      1
  1502  1430  1439      1
  1503  1431  1432      1
  1504  1431  1433      1
  1505  1431  1440      1
  1506  1432  1441      1
  1507  1432  1442      1
  1508  1433  1434      1
  1509  1433  1443      1
  1510  1433  1444      1
  1511  1434  1435      1
  1512  1434  1445      1
  1513  1435  1446      1
  1514  1435  1447      1
  1515  1435  1451      1
  1516  1448  1449      1
  1517  1448  1453      1
  1518  1448  1455      1
  1519  1448  1456      1
  1520  1449  1450      1
  1521  1449  1457      1
  1522  1449  1458      1
  1523  1450  1451      1
  1524  1450  1452      1
  1525  1450  1459      1
  1526  1451  1460      1
  1527  1451  1461      1
  1528  1452  1453      1
  1529  1452  1462      1
  1530  1452  1463      1
  1531  1453  1454      1
  1532  1453  1464      1
  1533  1454  1465      1
  1534  1454  1466      1
  1535  1454  1470      1
  1536  1467  1468      1
  1537  1467  1472      1
  1538  1467  1474      1
  1539  1467  1475      1
  1540  1468  1469      1
  1541  1468  1476      1
  1542  1468  1477      1
  1543  1469  1470      1
  1544  1469  1471      1
  1545  1469  1478      1
  1546  1470  1479      1
  1547  1470  1480      1
  1548  1471  1472      1
  1549  1471  1481      1
  1550  1471  1482      1
  1551  1472  1473      1
  1552  1472  1483      1
  1553  1473  1484      1
  1554  1473  1485      1
  1555  1473  1489      1
  1556  1486  1487      1
  1557  1486  1491      1
  1558  1486  1493      1
  1559  1486  1494      1
  1560  1487  1488      1
  1561  1487  1495      1
  1562  1487  1496      1
  1563  1488  1489      1
  1564  1488  1490      1
  1565  1488  1497      1
  1566  1489  1498      1
  1567  1489  1499      1
  1568  1490  1491      1
  1569  1490  1500      1
  1570  1490  1501      1
  1571  1491  1492      1
  1572  1491  1502      1
  1573  1492  1503      1
  1574  1492  1504      1
  1575  1492  1508      1
  1576  1505  1506      1
  1577  1505  1510      1
  1578  1505  1512      1
  1579  1505  1513      1
  1580  1506  1507      1
  1581  1506  1514      1
  1582  1506  1515      1
  1583  1507  1508      1
  1584  1507  1509      1
  1585  1507  1516      1
  1586  1508  1517      1
  1587  1508  1518      1
  1588  1509  1510      1
  1589  1509  1519      1
  1590  1509  1520      1
  1591  1510  1511      1
  1592  1510  1521      1
  1593  1511  1522      1
  1594  1511  1523      1
  1595  1511  1527      1
  1596  1524  1525      1
  1597  1524  1529      1
  1598  1524  1531      1
  1599  1524  1532      1
  1600  1525  1526      1
  1601  1525  1533      1
  1602  1525  1534      1
  1603  1526  1527      1
  1604  1526  1528      1
  1605  1526  1535      1
  1606  1527  1536      1
  1607  1527  1537      1
  1608  1528  1529      1
  1609  1528  1538      1
  1610  1528  1539      1
  1611  1529  1530      1
  1612  1529  1540      1
  1613  1530  1541      1
  1614  1530  1542      1
  1615  1530  1546      1
  1616  1543  1544      1
  1617  1543  1548      1
  1618  1543  1550      1
  1619  1543  1551      1
  1620  1544  1545      1
  1621  1544  1552      1
  1622  1544  1553      1
  1623  1545  1546      1
  1624  1545  1547      1
  1625  1545  1554      1
  1626  1546  1555      1
  1627  1546  1556      1
  1628  1547  1548      1
  1629  1547  1557      1
  1630  1547  1558      1
  1631  1548  1549      1
  1632  1548  1559      1
  1633  1549  1560      1
  1634  1549  1561      1
  1635  1549  1565      1
  1636  1562  1563      1
  1637  1562  1567      1
  1638  1562  1569      1
  1639  1562  1570      1
  1640  1563  1564      1
  1641  1563  1571      1
  1642  1563  1572      1
  1643  1564  1565      1
  1644  1564  1566      1
  1645  1564  1573      1
  1646  1565  1574      1
  1647  1565  1575      1
  1648  1566  1567      1
  1649  1566  1576      1
  1650  1566  1577      1
  1651  1567  1568      1
  1652  1567  1578      1
  1653  1568  1579      1
  1654  1568  1580      1
  1655  1568  1581      H
