###
### Created by PolyChef-cpp17 on Wed Feb 26 21:14:13 2025
###

@<TRIPOS>MOLECULE
NO_INFO
1286 1345 1 0 0
SMALL
USER_CHARGES


@<TRIPOS>ATOM
      1 C          91.9856   96.3101   85.6729 C.3       0        0    0.0000
      2 C          90.5870   96.1592   86.2547 C.3       0        0    0.0000
      3 C          90.4027   97.4600   87.0431 C.3       0        0    0.0000
      4 C          89.2654   97.4514   88.0692 C.3       0        0    0.0000
      5 C          91.7990   97.7973   87.6016 C.3       0        0    0.0000
      6 C          92.7846   96.8829   86.8481 C.3       0        0    0.0000
      7 C          94.1281   97.5204   86.4811 C.3       0        0    0.0000
      8 H          92.3902   95.3536   85.3278 H         0        0    0.0000
      9 H          91.9591   96.9962   84.8192 H         0        0    0.0000
     10 H          89.8298   96.0410   85.4735 H         0        0    0.0000
     11 H          90.5488   95.2761   86.9020 H         0        0    0.0000
     12 H          90.1573   98.2444   86.3113 H         0        0    0.0000
     13 H          89.4187   96.6192   88.7665 H         0        0    0.0000
     14 H          89.3113   98.3722   88.6628 H         0        0    0.0000
     15 H          91.8819   97.6160   88.6787 H         0        0    0.0000
     16 H          92.0061   98.8623   87.4509 H         0        0    0.0000
     17 H          93.0114   96.0412   87.5199 H         0        0    0.0000
     18 H          94.8105   96.7387   86.1268 H         0        0    0.0000
     19 H          93.9796   98.2122   85.6434 H         0        0    0.0000
     20 C          95.6351   96.7388   90.9199 C.3       1        0    0.0000
     21 C          95.2538   96.5014   89.4567 C.3       1        0    0.0000
     22 C          94.4177   97.7166   89.0170 C.3       1        0    0.0000
     23 C          94.8125   98.2900   87.6505 C.3       1        0    0.0000
     24 C          94.5958   98.7328   90.1496 C.3       1        0    0.0000
     25 C          94.7390   97.8795   91.4145 C.3       1        0    0.0000
     26 C          93.3798   97.3924   91.9515 C.3       1        0    0.0000
     27 H          95.5549   95.8244   91.5154 H         1        0    0.0000
     28 H          96.6836   97.0603   90.9640 H         1        0    0.0000
     29 H          96.1568   96.3646   88.8515 H         1        0    0.0000
     30 H          94.6583   95.5859   89.3614 H         1        0    0.0000
     31 H          93.3603   97.4165   88.9910 H         1        0    0.0000
     32 H          94.5112   99.3429   87.5976 H         1        0    0.0000
     33 H          95.9011   98.2644   87.5246 H         1        0    0.0000
     34 H          93.7592   99.4370   90.2042 H         1        0    0.0000
     35 H          95.5121   99.3178   89.9974 H         1        0    0.0000
     36 H          95.2529   98.4583   92.1925 H         1        0    0.0000
     37 H          93.4777   96.4255   92.4574 H         1        0    0.0000
     38 H          92.6890   97.2446   91.1129 H         1        0    0.0000
     39 C          92.7420   98.4223   92.9284 C.3       2        0    0.0000
     40 C          91.7852   99.4143   92.2517 C.3       2        0    0.0000
     41 H          92.1693   97.8463   93.6665 H         2        0    0.0000
     42 H          93.5314   98.9441   93.4821 H         2        0    0.0000
     43 H          91.1589   98.9163   91.5023 H         2        0    0.0000
     44 H          91.1048   99.8075   93.0179 H         2        0    0.0000
     45 C          95.0876  100.8098   88.9483 C.3       3        0    0.0000
     46 C          93.8628  100.0699   89.4917 C.3       3        0    0.0000
     47 C          93.8670  100.2732   91.0175 C.3       3        0    0.0000
     48 C          92.5014  100.6502   91.6050 C.3       3        0    0.0000
     49 C          94.9237  101.3566   91.2555 C.3       3        0    0.0000
     50 C          95.9707  101.1213   90.1615 C.3       3        0    0.0000
     51 C          96.9414   99.9781   90.5133 C.3       3        0    0.0000
     52 H          95.5963  100.2367   88.1673 H         3        0    0.0000
     53 H          94.7574  101.7519   88.4923 H         3        0    0.0000
     54 H          92.9529  100.4498   89.0142 H         3        0    0.0000
     55 H          93.9286   99.0007   89.2587 H         3        0    0.0000
     56 H          94.2187   99.3440   91.4883 H         3        0    0.0000
     57 H          92.6374  101.4168   92.3771 H         3        0    0.0000
     58 H          91.8596  101.0882   90.8320 H         3        0    0.0000
     59 H          95.3445  101.3043   92.2650 H         3        0    0.0000
     60 H          94.4828  102.3542   91.1315 H         3        0    0.0000
     61 H          96.5396  102.0443   89.9920 H         3        0    0.0000
     62 H          97.8579  100.0393   89.9161 H         3        0    0.0000
     63 H          96.4712   99.0160   90.2774 H         3        0    0.0000
     64 C          97.3109   99.9788   92.0250 C.3       4        0    0.0000
     65 C          98.7377  100.4642   92.3183 C.3       4        0    0.0000
     66 H          96.6100  100.6617   92.5221 H         4        0    0.0000
     67 H          97.1330   98.9837   92.4493 H         4        0    0.0000
     68 H          99.4498   99.6306   92.3216 H         4        0    0.0000
     69 H          99.0432  101.1345   91.5047 H         4        0    0.0000
     70 C          95.6451  101.8100   93.9403 C.3       5        0    0.0000
     71 C          96.6639  102.2793   92.8983 C.3       5        0    0.0000
     72 C          97.9748  102.5312   93.6514 C.3       5        0    0.0000
     73 C          98.8721  101.2793   93.6510 C.3       5        0    0.0000
     74 C          97.4725  102.9523   95.0383 C.3       5        0    0.0000
     75 C          96.2971  102.0126   95.3182 C.3       5        0    0.0000
     76 C          95.3529  102.5638   96.3926 C.3       5        0    0.0000
     77 H          94.7145  102.3783   93.8300 H         5        0    0.0000
     78 H          95.3992  100.7526   93.7899 H         5        0    0.0000
     79 H          96.3119  103.2214   92.4590 H         5        0    0.0000
     80 H          96.7686  101.5628   92.0772 H         5        0    0.0000
     81 H          98.5200  103.3601   93.1820 H         5        0    0.0000
     82 H          98.5813  100.6273   94.4836 H         5        0    0.0000
     83 H          99.9225  101.5433   93.8133 H         5        0    0.0000
     84 H          97.1260  103.9934   94.9986 H         5        0    0.0000
     85 H          98.2375  102.8916   95.8181 H         5        0    0.0000
     86 H          96.6982  101.0469   95.6565 H         5        0    0.0000
     87 H          95.0439  101.7638   97.0755 H         5        0    0.0000
     88 H          94.4418  102.9446   95.9160 H         5        0    0.0000
     89 C          98.7387  105.5473   95.3525 C.3       6        0    0.0000
     90 C          97.4986  104.6497   95.3613 C.3       6        0    0.0000
     91 C          97.4447  104.0033   96.7518 C.3       6        0    0.0000
     92 C          96.0106  103.7160   97.2050 C.3       6        0    0.0000
     93 C          98.2037  105.0033   97.6303 C.3       6        0    0.0000
     94 C          99.3826  105.4059   96.7380 C.3       6        0    0.0000
     95 C         100.1077  106.6815   97.1757 C.3       6        0    0.0000
     96 H          99.4387  105.2550   94.5624 H         6        0    0.0000
     97 H          98.4382  106.5830   95.1534 H         6        0    0.0000
     98 H          97.5503  103.8880   94.5759 H         6        0    0.0000
     99 H          96.6067  105.2573   95.1664 H         6        0    0.0000
    100 H          98.0160  103.0642   96.7155 H         6        0    0.0000
    101 H          95.4037  104.6208   97.0809 H         6        0    0.0000
    102 H          95.9918  103.4668   98.2724 H         6        0    0.0000
    103 H          98.5376  104.5514   98.5697 H         6        0    0.0000
    104 H          97.5769  105.8717   97.8687 H         6        0    0.0000
    105 H         100.0958  104.5696   96.7006 H         6        0    0.0000
    106 H          99.4398  107.5468   97.0909 H         6        0    0.0000
    107 H         100.9525  106.8670   96.5017 H         6        0    0.0000
    108 C         100.6472  106.5854   98.6292 C.3       7        0    0.0000
    109 C         101.8547  107.4920   98.9076 C.3       7        0    0.0000
    110 H          99.8290  106.8950   99.2920 H         7        0    0.0000
    111 H         100.8691  105.5397   98.8725 H         7        0    0.0000
    112 H         102.6218  107.3841   98.1318 H         7        0    0.0000
    113 H         101.5138  108.5345   98.8689 H         7        0    0.0000
    114 C         102.4990  107.2787  100.3211 C.3       8        0    0.0000
    115 C         103.5614  108.3252  100.6869 C.3       8        0    0.0000
    116 H         102.9833  106.2939  100.3032 H         8        0    0.0000
    117 H         101.7116  107.2269  101.0821 H         8        0    0.0000
    118 H         104.4260  108.1775  100.0272 H         8        0    0.0000
    119 H         103.1980  109.3432  100.5040 H         8        0    0.0000
    120 C         104.0898  108.2092  102.1586 C.3       9        0    0.0000
    121 C         105.1399  109.2661  102.5295 C.3       9        0    0.0000
    122 H         103.2230  108.3444  102.8180 H         9        0    0.0000
    123 H         104.4646  107.1946  102.3377 H         9        0    0.0000
    124 H         104.8386  109.8330  103.4182 H         9        0    0.0000
    125 H         106.0701  108.7451  102.7901 H         9        0    0.0000
    126 C         105.4869  110.2559  101.3639 C.3      10        0    0.0000
    127 C         106.4534  111.3791  101.7662 C.3      10        0    0.0000
    128 H         104.5423  110.7165  101.0476 H        10        0    0.0000
    129 H         105.8654  109.6936  100.5021 H        10        0    0.0000
    130 H         106.0159  111.9159  102.6177 H        10        0    0.0000
    131 H         107.4131  110.9756  102.1096 H        10        0    0.0000
    132 C         103.6921  114.6965  100.0794 C.3      11        0    0.0000
    133 C         104.2784  113.3247  100.3823 C.3      11        0    0.0000
    134 C         105.7469  113.6400  100.6853 C.3      11        0    0.0000
    135 C         106.6997  112.4416  100.6396 C.3      11        0    0.0000
    136 C         106.1103  114.8137   99.7549 C.3      11        0    0.0000
    137 C         104.7715  115.3442   99.2057 C.3      11        0    0.0000
    138 C         104.6739  116.8658   99.0601 C.3      11        0    0.0000
    139 H         102.7312  114.6250   99.5605 H        11        0    0.0000
    140 H         103.5340  115.2459  101.0140 H        11        0    0.0000
    141 H         103.7779  112.8439  101.2284 H        11        0    0.0000
    142 H         104.1686  112.6741   99.5076 H        11        0    0.0000
    143 H         105.7837  114.0293  101.7140 H        11        0    0.0000
    144 H         106.6083  111.9486   99.6645 H        11        0    0.0000
    145 H         107.7325  112.8017  100.7149 H        11        0    0.0000
    146 H         106.7542  114.5127   98.9215 H        11        0    0.0000
    147 H         106.6682  115.5689  100.3190 H        11        0    0.0000
    148 H         104.6568  114.9255   98.1945 H        11        0    0.0000
    149 H         103.9163  117.1053   98.3046 H        11        0    0.0000
    150 H         104.3220  117.2946  100.0060 H        11        0    0.0000
    151 C         108.2798  115.1992   96.7876 C.3      12        0    0.0000
    152 C         106.9045  115.5677   97.3500 C.3      12        0    0.0000
    153 C         107.1585  116.5572   98.4949 C.3      12        0    0.0000
    154 C         106.0124  117.5584   98.6639 C.3      12        0    0.0000
    155 C         108.5050  117.1853   98.1201 C.3      12        0    0.0000
    156 C         109.3076  115.9812   97.6161 C.3      12        0    0.0000
    157 C         110.5561  116.3407   96.8058 C.3      12        0    0.0000
    158 H         108.4625  114.1211   96.8513 H        12        0    0.0000
    159 H         108.3262  115.4744   95.7271 H        12        0    0.0000
    160 H         106.3681  114.6823   97.7079 H        12        0    0.0000
    161 H         106.2950  116.0187   96.5578 H        12        0    0.0000
    162 H         107.2863  115.9815   99.4232 H        12        0    0.0000
    163 H         105.8604  118.0972   97.7210 H        12        0    0.0000
    164 H         106.2720  118.3096   99.4190 H        12        0    0.0000
    165 H         108.9848  117.6664   98.9783 H        12        0    0.0000
    166 H         108.3820  117.9348   97.3283 H        12        0    0.0000
    167 H         109.5928  115.3633   98.4800 H        12        0    0.0000
    168 H         110.4071  116.0941   95.7481 H        12        0    0.0000
    169 H         111.4012  115.7356   97.1554 H        12        0    0.0000
    170 C         110.9349  117.8413   96.9384 C.3      13        0    0.0000
    171 C         112.3795  118.1589   96.5265 C.3      13        0    0.0000
    172 H         110.2613  118.3980   96.2743 H        13        0    0.0000
    173 H         110.7257  118.1864   97.9578 H        13        0    0.0000
    174 H         113.0680  117.3670   96.8439 H        13        0    0.0000
    175 H         112.4218  118.1906   95.4302 H        13        0    0.0000
    176 C         115.9657  118.1571   98.4991 C.3      14        0    0.0000
    177 C         115.0236  118.1572   97.2962 C.3      14        0    0.0000
    178 C         114.4229  119.5707   97.2065 C.3      14        0    0.0000
    179 C         112.8978  119.5469   97.0397 C.3      14        0    0.0000
    180 C         114.9022  120.2809   98.4819 C.3      14        0    0.0000
    181 C         116.2501  119.6281   98.8137 C.3      14        0    0.0000
    182 C         117.4328  120.1694   97.9900 C.3      14        0    0.0000
    183 H         115.4510  117.6981   99.3529 H        14        0    0.0000
    184 H         116.8704  117.5698   98.3133 H        14        0    0.0000
    185 H         114.2628  117.3767   97.4069 H        14        0    0.0000
    186 H         115.5809  117.9356   96.3784 H        14        0    0.0000
    187 H         114.8703  120.0724   96.3368 H        14        0    0.0000
    188 H         112.5775  120.3378   96.3516 H        14        0    0.0000
    189 H         112.4246  119.7575   98.0063 H        14        0    0.0000
    190 H         114.9714  121.3647   98.3468 H        14        0    0.0000
    191 H         114.2015  120.0967   99.3066 H        14        0    0.0000
    192 H         116.4721  119.7412   99.8825 H        14        0    0.0000
    193 H         117.3184  121.2394   97.7860 H        14        0    0.0000
    194 H         117.4548  119.6655   97.0160 H        14        0    0.0000
    195 C         118.7972  119.9176   98.6921 C.3      15        0    0.0000
    196 C         119.0992  120.8949   99.8372 C.3      15        0    0.0000
    197 H         118.7554  118.9043   99.1115 H        15        0    0.0000
    198 H         119.6013  119.9155   97.9470 H        15        0    0.0000
    199 H         119.3439  121.8931   99.4556 H        15        0    0.0000
    200 H         118.1889  121.0042  100.4406 H        15        0    0.0000
    201 C         122.6905  123.1179  101.0897 C.3      16        0    0.0000
    202 C         121.2638  122.7398  100.6948 C.3      16        0    0.0000
    203 C         120.8518  121.5663  101.6004 C.3      16        0    0.0000
    204 C         120.2302  120.4086  100.8082 C.3      16        0    0.0000
    205 C         122.1336  121.1889  102.3588 C.3      16        0    0.0000
    206 C         122.9260  122.4977  102.4694 C.3      16        0    0.0000
    207 C         122.4527  123.4278  103.6013 C.3      16        0    0.0000
    208 H         123.3881  122.6718  100.3693 H        16        0    0.0000
    209 H         122.8507  124.2004  101.0669 H        16        0    0.0000
    210 H         121.2153  122.4931   99.6285 H        16        0    0.0000
    211 H         120.5877  123.5869  100.8603 H        16        0    0.0000
    212 H         120.1143  121.9417  102.3238 H        16        0    0.0000
    213 H         119.8292  119.6513  101.4919 H        16        0    0.0000
    214 H         121.0096  119.9171  100.2136 H        16        0    0.0000
    215 H         121.9169  120.7344  103.3304 H        16        0    0.0000
    216 H         122.7190  120.4628  101.7797 H        16        0    0.0000
    217 H         123.9943  122.2831  102.6006 H        16        0    0.0000
    218 H         122.2738  122.8690  104.5262 H        16        0    0.0000
    219 H         121.4948  123.8812  103.3191 H        16        0    0.0000
    220 C         123.5903  127.9912  102.2803 C.3      17        0    0.0000
    221 C         122.8424  126.9057  103.0587 C.3      17        0    0.0000
    222 C         123.5353  125.5789  102.7212 C.3      17        0    0.0000
    223 C         123.4652  124.5756  103.8758 C.3      17        0    0.0000
    224 C         124.9538  126.0143  102.3388 C.3      17        0    0.0000
    225 C         124.7039  127.2751  101.5047 C.3      17        0    0.0000
    226 C         125.9360  128.1618  101.3037 C.3      17        0    0.0000
    227 H         122.9211  128.5288  101.6000 H        17        0    0.0000
    228 H         123.9998  128.7274  102.9823 H        17        0    0.0000
    229 H         121.7822  126.8758  102.7854 H        17        0    0.0000
    230 H         122.8952  127.1243  104.1320 H        17        0    0.0000
    231 H         123.0471  125.1540  101.8321 H        17        0    0.0000
    232 H         123.1610  125.0975  104.7910 H        17        0    0.0000
    233 H         124.4564  124.1492  104.0697 H        17        0    0.0000
    234 H         125.4781  125.2425  101.7664 H        17        0    0.0000
    235 H         125.5480  126.2453  103.2318 H        17        0    0.0000
    236 H         124.3013  126.9745  100.5265 H        17        0    0.0000
    237 H         125.6408  129.2161  101.2484 H        17        0    0.0000
    238 H         126.4072  127.9147  100.3449 H        17        0    0.0000
    239 C         128.7753  131.1933  102.9168 C.3      18        0    0.0000
    240 C         127.8364  130.3792  102.0232 C.3      18        0    0.0000
    241 C         128.1980  128.8986  102.2382 C.3      18        0    0.0000
    242 C         126.9870  127.9777  102.4326 C.3      18        0    0.0000
    243 C         129.1272  128.9054  103.4563 C.3      18        0    0.0000
    244 C         129.8863  130.2328  103.3550 C.3      18        0    0.0000
    245 C         131.0571  130.1653  102.3561 C.3      18        0    0.0000
    246 H         129.1422  132.0914  102.4109 H        18        0    0.0000
    247 H         128.2189  131.5274  103.8019 H        18        0    0.0000
    248 H         126.7934  130.6033  102.2728 H        18        0    0.0000
    249 H         127.9825  130.6488  100.9706 H        18        0    0.0000
    250 H         128.7770  128.5552  101.3691 H        18        0    0.0000
    251 H         127.3209  126.9333  102.4303 H        18        0    0.0000
    252 H         126.5201  128.1597  103.4075 H        18        0    0.0000
    253 H         129.7919  128.0354  103.4698 H        18        0    0.0000
    254 H         128.5409  128.8891  104.3842 H        18        0    0.0000
    255 H         130.2664  130.5157  104.3448 H        18        0    0.0000
    256 H         130.7441  130.4884  101.3571 H        18        0    0.0000
    257 H         131.3969  129.1269  102.2633 H        18        0    0.0000
    258 C         134.7432  131.1585  105.5809 C.3      19        0    0.0000
    259 C         134.3559  130.5211  104.2442 C.3      19        0    0.0000
    260 C         132.8188  130.5532  104.1702 C.3      19        0    0.0000
    261 C         132.2643  131.0299  102.8221 C.3      19        0    0.0000
    262 C         132.3996  131.4642  105.3285 C.3      19        0    0.0000
    263 C         133.4567  131.2226  106.4113 C.3      19        0    0.0000
    264 C         133.1905  129.9359  107.2156 C.3      19        0    0.0000
    265 H         135.5579  130.6161  106.0699 H        19        0    0.0000
    266 H         135.1023  132.1788  105.3947 H        19        0    0.0000
    267 H         134.8331  131.0613  103.4191 H        19        0    0.0000
    268 H         134.7090  129.4842  104.1995 H        19        0    0.0000
    269 H         132.4423  129.5415  104.3783 H        19        0    0.0000
    270 H         131.9320  132.0708  102.9137 H        19        0    0.0000
    271 H         133.0496  131.0133  102.0576 H        19        0    0.0000
    272 H         131.3824  131.2493  105.6717 H        19        0    0.0000
    273 H         132.4290  132.5164  105.0169 H        19        0    0.0000
    274 H         133.4863  132.0809  107.0946 H        19        0    0.0000
    275 H         134.1212  129.5215  107.6186 H        19        0    0.0000
    276 H         132.7634  129.1742  106.5525 H        19        0    0.0000
    277 C         132.1885  130.1802  108.3810 C.3      20        0    0.0000
    278 C         130.7177  129.9706  107.9934 C.3      20        0    0.0000
    279 H         132.4386  129.4596  109.1701 H        20        0    0.0000
    280 H         132.3510  131.1781  108.8049 H        20        0    0.0000
    281 H         130.6108  129.1705  107.2516 H        20        0    0.0000
    282 H         130.1731  129.6435  108.8884 H        20        0    0.0000
    283 C         133.3835  132.5001  106.7492 C.3      21        0    0.0000
    284 C         132.2984  131.4888  106.3822 C.3      21        0    0.0000
    285 C         130.9479  132.1673  106.6695 C.3      21        0    0.0000
    286 C         130.0036  131.2679  107.4780 C.3      21        0    0.0000
    287 C         131.3133  133.4837  107.3726 C.3      21        0    0.0000
    288 C         132.6887  133.8629  106.8091 C.3      21        0    0.0000
    289 C         132.6393  134.5394  105.4270 C.3      21        0    0.0000
    290 H         133.7783  132.2520  107.7427 H        21        0    0.0000
    291 H         134.2255  132.4720  106.0505 H        21        0    0.0000
    292 H         132.4368  130.5591  106.9449 H        21        0    0.0000
    293 H         132.3626  131.2336  105.3179 H        21        0    0.0000
    294 H         130.4777  132.4042  105.7046 H        21        0    0.0000
    295 H         129.1300  130.9936  106.8753 H        21        0    0.0000
    296 H         129.6279  131.8243  108.3451 H        21        0    0.0000
    297 H         130.5559  134.2576  107.2142 H        21        0    0.0000
    298 H         131.4002  133.3258  108.4555 H        21        0    0.0000
    299 H         133.2186  134.5172  107.5132 H        21        0    0.0000
    300 H         131.7131  134.2932  104.8969 H        21        0    0.0000
    301 H         133.4633  134.1606  104.8102 H        21        0    0.0000
    302 C         134.7761  136.9454  108.4886 C.3      22        0    0.0000
    303 C         134.3507  135.8356  107.5283 C.3      22        0    0.0000
    304 C         134.1195  136.5006  106.1604 C.3      22        0    0.0000
    305 C         132.7853  136.0842  105.5275 C.3      22        0    0.0000
    306 C         134.2397  138.0079  106.4330 C.3      22        0    0.0000
    307 C         135.2173  138.1188  107.6100 C.3      22        0    0.0000
    308 C         136.7001  138.0069  107.2110 C.3      22        0    0.0000
    309 H         133.9076  137.2489  109.0871 H        22        0    0.0000
    310 H         135.5493  136.6110  109.1874 H        22        0    0.0000
    311 H         133.4610  135.3218  107.9086 H        22        0    0.0000
    312 H         135.1444  135.0841  107.4424 H        22        0    0.0000
    313 H         134.9409  136.1982  105.4955 H        22        0    0.0000
    314 H         132.6804  136.5303  104.5317 H        22        0    0.0000
    315 H         131.9593  136.4713  106.1363 H        22        0    0.0000
    316 H         134.5690  138.5602  105.5475 H        22        0    0.0000
    317 H         133.2674  138.4193  106.7341 H        22        0    0.0000
    318 H         135.0576  139.0628  108.1466 H        22        0    0.0000
    319 H         137.0287  136.9623  107.1917 H        22        0    0.0000
    320 H         137.3155  138.5149  107.9634 H        22        0    0.0000
    321 C         140.5348  139.5989  105.2819 C.3      23        0    0.0000
    322 C         139.1202  139.5676  104.6981 C.3      23        0    0.0000
    323 C         138.4059  138.3645  105.3397 C.3      23        0    0.0000
    324 C         136.9851  138.6665  105.8320 C.3      23        0    0.0000
    325 C         139.3368  137.9290  106.4758 C.3      23        0    0.0000
    326 C         140.7460  138.2414  105.9611 C.3      23        0    0.0000
    327 C         141.2738  137.1593  105.0002 C.3      23        0    0.0000
    328 H         141.2847  139.8331  104.5203 H        23        0    0.0000
    329 H         140.5869  140.3919  106.0390 H        23        0    0.0000
    330 H         138.6125  140.5184  104.8946 H        23        0    0.0000
    331 H         139.1593  139.4401  103.6100 H        23        0    0.0000
    332 H         138.3667  137.5521  104.6001 H        23        0    0.0000
    333 H         136.8584  139.7511  105.9323 H        23        0    0.0000
    334 H         136.2452  138.3267  105.0982 H        23        0    0.0000
    335 H         139.2027  136.8735  106.7341 H        23        0    0.0000
    336 H         139.1383  138.5192  107.3798 H        23        0    0.0000
    337 H         141.4338  138.3428  106.8103 H        23        0    0.0000
    338 H         141.7980  137.6075  104.1489 H        23        0    0.0000
    339 H         140.4291  136.5922  104.5914 H        23        0    0.0000
    340 C         145.7192  136.6670  107.1253 C.3      24        0    0.0000
    341 C         144.7874  136.0685  106.0808 C.3      24        0    0.0000
    342 C         143.4692  136.8068  106.3356 C.3      24        0    0.0000
    343 C         142.2240  136.1599  105.7216 C.3      24        0    0.0000
    344 C         143.4182  137.0319  107.8595 C.3      24        0    0.0000
    345 C         144.8372  136.7251  108.3769 C.3      24        0    0.0000
    346 C         145.3440  137.6394  109.4964 C.3      24        0    0.0000
    347 H         146.6108  136.0511  107.2787 H        24        0    0.0000
    348 H         146.0446  137.6625  106.8038 H        24        0    0.0000
    349 H         145.1578  136.2275  105.0634 H        24        0    0.0000
    350 H         144.6934  134.9892  106.2439 H        24        0    0.0000
    351 H         143.5656  137.8005  105.8726 H        24        0    0.0000
    352 H         142.5364  135.3911  105.0050 H        24        0    0.0000
    353 H         141.6615  135.6458  106.5099 H        24        0    0.0000
    354 H         142.6962  136.3795  108.3623 H        24        0    0.0000
    355 H         143.1024  138.0600  108.0672 H        24        0    0.0000
    356 H         144.8081  135.7071  108.7940 H        24        0    0.0000
    357 H         145.0755  138.6761  109.2611 H        24        0    0.0000
    358 H         144.8272  137.3842  110.4292 H        24        0    0.0000
    359 C         147.2439  137.8818  113.4810 C.3      25        0    0.0000
    360 C         146.4329  137.5464  112.2387 C.3      25        0    0.0000
    361 C         147.2884  138.1180  111.1062 C.3      25        0    0.0000
    362 C         146.8814  137.5631  109.7390 C.3      25        0    0.0000
    363 C         148.7299  137.7856  111.5329 C.3      25        0    0.0000
    364 C         148.6870  137.5753  113.0605 C.3      25        0    0.0000
    365 C         149.7718  138.3113  113.8570 C.3      25        0    0.0000
    366 H         146.9342  137.2849  114.3446 H        25        0    0.0000
    367 H         147.1033  138.9377  113.7359 H        25        0    0.0000
    368 H         146.3207  136.4598  112.1404 H        25        0    0.0000
    369 H         145.4342  137.9928  112.2687 H        25        0    0.0000
    370 H         147.1741  139.2118  111.1068 H        25        0    0.0000
    371 H         147.4003  138.1066  108.9405 H        25        0    0.0000
    372 H         147.1980  136.5160  109.6641 H        25        0    0.0000
    373 H         149.0822  136.8627  111.0555 H        25        0    0.0000
    374 H         149.4167  138.5821  111.2281 H        25        0    0.0000
    375 H         148.8507  136.5012  113.2339 H        25        0    0.0000
    376 H         149.8213  137.8905  114.8683 H        25        0    0.0000
    377 H         149.4800  139.3624  113.9682 H        25        0    0.0000
    378 C         151.4798  137.7839  109.5481 C.3      26        0    0.0000
    379 C         150.5384  138.0154  110.7327 C.3      26        0    0.0000
    380 C         151.2105  137.3751  111.9605 C.3      26        0    0.0000
    381 C         151.1891  138.2530  113.2179 C.3      26        0    0.0000
    382 C         152.6352  137.0584  111.4944 C.3      26        0    0.0000
    383 C         152.4888  136.7251  110.0058 C.3      26        0    0.0000
    384 C         152.0010  135.2828  109.7718 C.3      26        0    0.0000
    385 H         150.9330  137.5099  108.6408 H        26        0    0.0000
    386 H         152.0125  138.7190  109.3323 H        26        0    0.0000
    387 H         150.3527  139.0876  110.8599 H        26        0    0.0000
    388 H         149.5688  137.5384  110.5483 H        26        0    0.0000
    389 H         150.7023  136.4242  112.1752 H        26        0    0.0000
    390 H         151.8879  137.8448  113.9578 H        26        0    0.0000
    391 H         151.5320  139.2672  112.9828 H        26        0    0.0000
    392 H         153.0833  136.2425  112.0707 H        26        0    0.0000
    393 H         153.2798  137.9393  111.6104 H        26        0    0.0000
    394 H         153.4514  136.8718  109.4995 H        26        0    0.0000
    395 H         151.7347  135.1205  108.7215 H        26        0    0.0000
    396 H         151.0938  135.1053  110.3616 H        26        0    0.0000
    397 C         153.0694  134.2352  110.1998 C.3      27        0    0.0000
    398 C         152.9134  133.7396  111.6446 C.3      27        0    0.0000
    399 H         152.9542  133.3735  109.5299 H        27        0    0.0000
    400 H         154.0735  134.6380  110.0225 H        27        0    0.0000
    401 H         152.0078  134.1459  112.1101 H        27        0    0.0000
    402 H         152.7909  132.6492  111.6191 H        27        0    0.0000
    403 C         155.3543  137.5085  113.4751 C.3      28        0    0.0000
    404 C         154.2558  136.4565  113.4731 C.3      28        0    0.0000
    405 C         154.7238  135.4514  112.4129 C.3      28        0    0.0000
    406 C         154.1542  134.0345  112.5568 C.3      28        0    0.0000
    407 C         156.2634  135.5476  112.3980 C.3      28        0    0.0000
    408 C         156.6314  136.6706  113.3849 C.3      28        0    0.0000
    409 C         157.8445  137.5098  112.9762 C.3      28        0    0.0000
    410 H         155.2507  138.1673  112.6043 H        28        0    0.0000
    411 H         155.3278  138.1267  114.3777 H        28        0    0.0000
    412 H         154.1810  136.0033  114.4675 H        28        0    0.0000
    413 H         153.2795  136.8857  113.2267 H        28        0    0.0000
    414 H         154.3767  135.8271  111.4388 H        28        0    0.0000
    415 H         154.9422  133.3088  112.3225 H        28        0    0.0000
    416 H         153.8731  133.8659  113.6031 H        28        0    0.0000
    417 H         156.5960  135.7886  111.3807 H        28        0    0.0000
    418 H         156.7550  134.6101  112.6784 H        28        0    0.0000
    419 H         156.8150  136.2158  114.3692 H        28        0    0.0000
    420 H         157.8163  137.7164  111.8998 H        28        0    0.0000
    421 H         157.8011  138.4806  113.4842 H        28        0    0.0000
    422 C         160.7360  138.2999  116.4727 C.3      29        0    0.0000
    423 C         159.9356  138.4655  115.1885 C.3      29        0    0.0000
    424 C         159.6377  137.0183  114.7825 C.3      29        0    0.0000
    425 C         159.1925  136.8213  113.3302 C.3      29        0    0.0000
    426 C         160.8794  136.2127  115.2120 C.3      29        0    0.0000
    427 C         161.6856  137.1453  116.1371 C.3      29        0    0.0000
    428 C         162.3495  136.4690  117.3405 C.3      29        0    0.0000
    429 H         161.2770  139.2135  116.7379 H        29        0    0.0000
    430 H         160.0616  138.0518  117.2997 H        29        0    0.0000
    431 H         159.0206  139.0442  115.3487 H        29        0    0.0000
    432 H         160.5414  138.9872  114.4395 H        29        0    0.0000
    433 H         158.8044  136.6750  115.4141 H        29        0    0.0000
    434 H         159.9713  137.2069  112.6616 H        29        0    0.0000
    435 H         159.1043  135.7478  113.1249 H        29        0    0.0000
    436 H         161.5036  135.9086  114.3648 H        29        0    0.0000
    437 H         160.5628  135.2895  115.7093 H        29        0    0.0000
    438 H         162.4991  137.5681  115.5283 H        29        0    0.0000
    439 H         162.7804  137.2392  117.9912 H        29        0    0.0000
    440 H         161.5825  135.9522  117.9294 H        29        0    0.0000
    441 C         164.1515  133.4464  120.0900 C.3      30        0    0.0000
    442 C         163.2288  134.2676  119.2023 C.3      30        0    0.0000
    443 C         164.1933  134.8968  118.1948 C.3      30        0    0.0000
    444 C         163.4656  135.4481  116.9662 C.3      30        0    0.0000
    445 C         165.1978  133.7688  117.8960 C.3      30        0    0.0000
    446 C         165.1254  132.8017  119.0957 C.3      30        0    0.0000
    447 C         166.4781  132.3798  119.6834 C.3      30        0    0.0000
    448 H         163.6018  132.6970  120.6681 H        30        0    0.0000
    449 H         164.6619  134.1078  120.7985 H        30        0    0.0000
    450 H         162.5036  133.6147  118.7015 H        30        0    0.0000
    451 H         162.6759  135.0207  119.7719 H        30        0    0.0000
    452 H         164.7329  135.7124  118.6979 H        30        0    0.0000
    453 H         164.1804  135.9274  116.2867 H        30        0    0.0000
    454 H         163.0119  134.6184  116.4112 H        30        0    0.0000
    455 H         164.9244  133.2257  116.9828 H        30        0    0.0000
    456 H         166.2007  134.1774  117.7335 H        30        0    0.0000
    457 H         164.6471  131.8816  118.7283 H        30        0    0.0000
    458 H         166.7752  133.1020  120.4530 H        30        0    0.0000
    459 H         167.2392  132.4294  118.8956 H        30        0    0.0000
    460 C         168.2047  131.6114  123.6156 C.3      31        0    0.0000
    461 C         167.8036  132.0863  122.2274 C.3      31        0    0.0000
    462 C         167.4418  130.7879  121.4950 C.3      31        0    0.0000
    463 C         166.4930  130.9519  120.3008 C.3      31        0    0.0000
    464 C         166.9656  129.8106  122.5893 C.3      31        0    0.0000
    465 C         167.1540  130.5444  123.9297 C.3      31        0    0.0000
    466 C         167.5733  129.6477  125.0972 C.3      31        0    0.0000
    467 H         169.2127  131.1797  123.5927 H        31        0    0.0000
    468 H         168.1976  132.4268  124.3454 H        31        0    0.0000
    469 H         166.9498  132.7679  122.3061 H        31        0    0.0000
    470 H         168.6162  132.6240  121.7289 H        31        0    0.0000
    471 H         168.3784  130.3750  121.0917 H        31        0    0.0000
    472 H         166.7760  130.2352  119.5206 H        31        0    0.0000
    473 H         165.4752  130.6901  120.6134 H        31        0    0.0000
    474 H         167.5771  128.9007  122.5457 H        31        0    0.0000
    475 H         165.9236  129.4984  122.4627 H        31        0    0.0000
    476 H         166.2109  131.0526  124.1781 H        31        0    0.0000
    477 H         166.8030  129.6577  125.8774 H        31        0    0.0000
    478 H         167.6534  128.6115  124.7475 H        31        0    0.0000
    479 C         168.9347  130.0721  125.7161 C.3      32        0    0.0000
    480 C         169.6408  128.9540  126.4964 C.3      32        0    0.0000
    481 H         169.5838  130.3672  124.8818 H        32        0    0.0000
    482 H         168.7960  130.9652  126.3365 H        32        0    0.0000
    483 H         169.1505  128.7686  127.4593 H        32        0    0.0000
    484 H         169.5535  128.0265  125.9162 H        32        0    0.0000
    485 C         172.4923  127.1641  129.4737 C.3      33        0    0.0000
    486 C         171.3107  127.4149  128.5380 C.3      33        0    0.0000
    487 C         171.8978  127.9466  127.2191 C.3      33        0    0.0000
    488 C         171.1721  129.2041  126.7226 C.3      33        0    0.0000
    489 C         173.3906  128.1604  127.5135 C.3      33        0    0.0000
    490 C         173.7353  127.1147  128.5815 C.3      33        0    0.0000
    491 C         173.9814  125.7010  128.0236 C.3      33        0    0.0000
    492 H         172.5800  128.0089  130.1688 H        33        0    0.0000
    493 H         172.3547  126.2616  130.0775 H        33        0    0.0000
    494 H         170.5994  128.1092  128.9987 H        33        0    0.0000
    495 H         170.7713  126.4792  128.3496 H        33        0    0.0000
    496 H         171.7997  127.1547  126.4630 H        33        0    0.0000
    497 H         171.6282  129.5652  125.7935 H        33        0    0.0000
    498 H         171.2867  130.0045  127.4634 H        33        0    0.0000
    499 H         174.0037  128.0716  126.6114 H        33        0    0.0000
    500 H         173.5574  129.1638  127.9266 H        33        0    0.0000
    501 H         174.6147  127.4352  129.1547 H        33        0    0.0000
    502 H         174.4938  125.7390  127.0563 H        33        0    0.0000
    503 H         173.0168  125.2094  127.8479 H        33        0    0.0000
    504 C         177.7392  127.1815  128.9977 C.3      34        0    0.0000
    505 C         176.5972  126.4625  128.2958 C.3      34        0    0.0000
    506 C         176.1770  125.4057  129.3194 C.3      34        0    0.0000
    507 C         174.7980  124.8182  129.0094 C.3      34        0    0.0000
    508 C         176.2747  126.1428  130.6676 C.3      34        0    0.0000
    509 C         177.2393  127.3250  130.4408 C.3      34        0    0.0000
    510 C         178.3359  127.4924  131.5003 C.3      34        0    0.0000
    511 H         177.9528  128.1527  128.5405 H        34        0    0.0000
    512 H         178.6485  126.5741  128.9338 H        34        0    0.0000
    513 H         175.7778  127.1618  128.0897 H        34        0    0.0000
    514 H         176.9145  126.0174  127.3478 H        34        0    0.0000
    515 H         176.9278  124.6021  129.3125 H        34        0    0.0000
    516 H         174.9017  123.8102  128.5905 H        34        0    0.0000
    517 H         174.2305  124.7144  129.9418 H        34        0    0.0000
    518 H         175.2977  126.5339  130.9777 H        34        0    0.0000
    519 H         176.6085  125.4615  131.4573 H        34        0    0.0000
    520 H         176.6290  128.2396  130.4798 H        34        0    0.0000
    521 H         178.6834  128.5323  131.4950 H        34        0    0.0000
    522 H         179.1965  126.8723  131.2225 H        34        0    0.0000
    523 C         178.5528  130.5194  134.4326 C.3      35        0    0.0000
    524 C         178.8788  129.0287  134.3091 C.3      35        0    0.0000
    525 C         177.5998  128.3488  133.8030 C.3      35        0    0.0000
    526 C         177.8966  127.1161  132.9445 C.3      35        0    0.0000
    527 C         176.8723  129.4790  133.0673 C.3      35        0    0.0000
    528 C         177.0905  130.6782  133.9960 C.3      35        0    0.0000
    529 C         176.8199  132.0410  133.3526 C.3      35        0    0.0000
    530 H         178.6978  130.8772  135.4576 H        35        0    0.0000
    531 H         179.2286  131.0954  133.7889 H        35        0    0.0000
    532 H         179.1940  128.6071  135.2696 H        35        0    0.0000
    533 H         179.7099  128.8938  133.6066 H        35        0    0.0000
    534 H         176.9993  128.0551  134.6763 H        35        0    0.0000
    535 H         176.9970  126.4920  132.8840 H        35        0    0.0000
    536 H         178.6749  126.5037  133.4148 H        35        0    0.0000
    537 H         175.8093  129.2582  132.9275 H        35        0    0.0000
    538 H         177.3201  129.6586  132.0819 H        35        0    0.0000
    539 H         176.4527  130.5552  134.8834 H        35        0    0.0000
    540 H         176.0149  132.5602  133.8859 H        35        0    0.0000
    541 H         176.4727  131.8928  132.3230 H        35        0    0.0000
    542 C         179.2564  134.3380  136.6575 C.3      36        0    0.0000
    543 C         178.1505  134.0979  135.6393 C.3      36        0    0.0000
    544 C         178.7855  133.0891  134.6766 C.3      36        0    0.0000
    545 C         178.0850  132.9419  133.3224 C.3      36        0    0.0000
    546 C         180.2774  133.4707  134.6149 C.3      36        0    0.0000
    547 C         180.5086  134.4509  135.7817 C.3      36        0    0.0000
    548 C         181.8425  134.2972  136.5188 C.3      36        0    0.0000
    549 H         179.0819  135.2451  137.2443 H        36        0    0.0000
    550 H         179.3126  133.4905  137.3495 H        36        0    0.0000
    551 H         177.2426  133.7047  136.1070 H        36        0    0.0000
    552 H         177.8959  135.0395  135.1406 H        36        0    0.0000
    553 H         178.7312  132.1044  135.1650 H        36        0    0.0000
    554 H         177.8010  133.9357  132.9563 H        36        0    0.0000
    555 H         178.7940  132.5291  132.5950 H        36        0    0.0000
    556 H         180.5549  133.9529  133.6714 H        36        0    0.0000
    557 H         180.8902  132.5660  134.6912 H        36        0    0.0000
    558 H         180.5053  135.4629  135.3495 H        36        0    0.0000
    559 H         181.7345  133.5347  137.2992 H        36        0    0.0000
    560 H         182.5988  133.9252  135.8174 H        36        0    0.0000
    561 C         181.0864  136.0375  140.6280 C.3      37        0    0.0000
    562 C         181.0211  135.2184  139.3365 C.3      37        0    0.0000
    563 C         181.3703  136.1806  138.1870 C.3      37        0    0.0000
    564 C         182.3684  135.6107  137.1716 C.3      37        0    0.0000
    565 C         181.9025  137.4351  138.8873 C.3      37        0    0.0000
    566 C         181.1137  137.5085  140.1991 C.3      37        0    0.0000
    567 C         179.7083  138.1093  140.0068 C.3      37        0    0.0000
    568 H         180.2659  135.7910  141.3086 H        37        0    0.0000
    569 H         182.0210  135.7979  141.1512 H        37        0    0.0000
    570 H         181.7045  134.3645  139.3993 H        37        0    0.0000
    571 H         180.0120  134.8156  139.1910 H        37        0    0.0000
    572 H         180.4395  136.4490  137.6670 H        37        0    0.0000
    573 H         182.5411  136.3484  136.3789 H        37        0    0.0000
    574 H         183.3372  135.4254  137.6496 H        37        0    0.0000
    575 H         181.7842  138.3311  138.2693 H        37        0    0.0000
    576 H         182.9718  137.3241  139.1091 H        37        0    0.0000
    577 H         181.6705  138.1086  140.9301 H        37        0    0.0000
    578 H         178.9868  137.6567  140.6959 H        37        0    0.0000
    579 H         179.3565  137.8941  138.9908 H        37        0    0.0000
    580 C         182.1442  142.3844  139.2227 C.3      38        0    0.0000
    581 C         180.8384  141.6418  138.9840 C.3      38        0    0.0000
    582 C         181.0122  140.3447  139.7841 C.3      38        0    0.0000
    583 C         179.7084  139.6532  140.2023 C.3      38        0    0.0000
    584 C         181.9766  140.6917  140.9369 C.3      38        0    0.0000
    585 C         182.4015  142.1546  140.7133 C.3      38        0    0.0000
    586 C         183.8478  142.4681  141.1044 C.3      38        0    0.0000
    587 H         182.9449  141.9507  138.6113 H        38        0    0.0000
    588 H         182.0620  143.4473  138.9759 H        38        0    0.0000
    589 H         180.0015  142.2453  139.3520 H        38        0    0.0000
    590 H         180.6680  141.4465  137.9206 H        38        0    0.0000
    591 H         181.5440  139.6347  139.1332 H        38        0    0.0000
    592 H         179.5121  139.8731  141.2585 H        38        0    0.0000
    593 H         178.8762  140.0828  139.6322 H        38        0    0.0000
    594 H         182.8406  140.0167  140.8948 H        38        0    0.0000
    595 H         181.5253  140.5672  141.9268 H        38        0    0.0000
    596 H         181.7191  142.8011  141.2842 H        38        0    0.0000
    597 H         184.4710  142.5592  140.2069 H        38        0    0.0000
    598 H         183.8835  143.4393  141.6121 H        38        0    0.0000
    599 C         188.0009  142.3123  143.0665 C.3      39        0    0.0000
    600 C         186.8796  142.3105  142.0369 C.3      39        0    0.0000
    601 C         185.6619  141.8752  142.8587 C.3      39        0    0.0000
    602 C         184.4583  141.3909  142.0444 C.3      39        0    0.0000
    603 C         186.2087  140.8745  143.8955 C.3      39        0    0.0000
    604 C         187.7421  141.0249  143.8559 C.3      39        0    0.0000
    605 C         188.4500  140.9310  145.2110 C.3      39        0    0.0000
    606 H         188.9887  142.3142  142.5952 H        39        0    0.0000
    607 H         187.9230  143.2050  143.6968 H        39        0    0.0000
    608 H         186.7389  143.2968  141.5840 H        39        0    0.0000
    609 H         187.1128  141.5990  141.2371 H        39        0    0.0000
    610 H         185.3238  142.7590  143.4205 H        39        0    0.0000
    611 H         184.7589  140.5263  141.4409 H        39        0    0.0000
    612 H         183.6788  141.0401  142.7310 H        39        0    0.0000
    613 H         185.9367  139.8375  143.6709 H        39        0    0.0000
    614 H         185.7842  141.0988  144.8800 H        39        0    0.0000
    615 H         188.1254  140.1936  143.2449 H        39        0    0.0000
    616 H         188.5492  139.8755  145.4907 H        39        0    0.0000
    617 H         189.4674  141.3277  145.1121 H        39        0    0.0000
    618 C         189.6592  143.7463  148.7747 C.3      40        0    0.0000
    619 C         189.6868  142.9580  147.4629 C.3      40        0    0.0000
    620 C         188.6299  141.8469  147.5947 C.3      40        0    0.0000
    621 C         187.7273  141.6888  146.3649 C.3      40        0    0.0000
    622 C         187.8403  142.2182  148.8540 C.3      40        0    0.0000
    623 C         188.8689  142.8900  149.7701 C.3      40        0    0.0000
    624 C         189.7451  141.8677  150.5186 C.3      40        0    0.0000
    625 H         190.6661  144.0043  149.1162 H        40        0    0.0000
    626 H         189.1244  144.6902  148.6083 H        40        0    0.0000
    627 H         189.4958  143.6291  146.6182 H        40        0    0.0000
    628 H         190.6765  142.5134  147.3058 H        40        0    0.0000
    629 H         189.1498  140.8972  147.7856 H        40        0    0.0000
    630 H         186.8296  141.1241  146.6434 H        40        0    0.0000
    631 H         187.3886  142.6690  146.0100 H        40        0    0.0000
    632 H         187.3675  141.3445  149.3142 H        40        0    0.0000
    633 H         187.0455  142.9347  148.6091 H        40        0    0.0000
    634 H         188.3520  143.5294  150.4970 H        40        0    0.0000
    635 H         190.7923  142.1888  150.5456 H        40        0    0.0000
    636 H         189.7196  140.9087  149.9877 H        40        0    0.0000
    637 C         191.8455  141.8850  154.6042 C.3      41        0    0.0000
    638 C         191.5357  141.9565  153.1069 C.3      41        0    0.0000
    639 C         190.3354  141.0249  152.8609 C.3      41        0    0.0000
    640 C         189.2419  141.6301  151.9719 C.3      41        0    0.0000
    641 C         189.8238  140.6825  154.2638 C.3      41        0    0.0000
    642 C         191.0806  140.6700  155.1404 C.3      41        0    0.0000
    643 C         191.8710  139.3537  155.0155 C.3      41        0    0.0000
    644 H         192.9221  141.8491  154.7961 H        41        0    0.0000
    645 H         191.4628  142.7930  155.0877 H        41        0    0.0000
    646 H         191.3367  142.9933  152.8143 H        41        0    0.0000
    647 H         192.3978  141.6148  152.5223 H        41        0    0.0000
    648 H         190.7064  140.0994  152.3976 H        41        0    0.0000
    649 H         188.3842  140.9479  151.9360 H        41        0    0.0000
    650 H         188.8803  142.5729  152.3981 H        41        0    0.0000
    651 H         189.2831  139.7307  154.2821 H        41        0    0.0000
    652 H         189.1368  141.4610  154.6204 H        41        0    0.0000
    653 H         190.7994  140.8290  156.1892 H        41        0    0.0000
    654 H         192.5196  139.3638  154.1325 H        41        0    0.0000
    655 H         191.1709  138.5197  154.8869 H        41        0    0.0000
    656 C         195.9213  140.6195  157.2314 C.3      42        0    0.0000
    657 C         194.9416  140.3349  156.0940 C.3      42        0    0.0000
    658 C         193.5364  140.3036  156.7198 C.3      42        0    0.0000
    659 C         192.7304  139.0735  156.2823 C.3      42        0    0.0000
    660 C         193.7810  140.3856  158.2345 C.3      42        0    0.0000
    661 C         195.0826  141.1841  158.3808 C.3      42        0    0.0000
    662 C         194.9040  142.7087  158.2616 C.3      42        0    0.0000
    663 H         196.3802  139.6745  157.5492 H        42        0    0.0000
    664 H         196.7331  141.2838  156.9187 H        42        0    0.0000
    665 H         195.2043  139.3990  155.5888 H        42        0    0.0000
    666 H         194.9917  141.1316  155.3424 H        42        0    0.0000
    667 H         193.0052  141.2116  156.4009 H        42        0    0.0000
    668 H         192.0836  138.7319  157.0988 H        42        0    0.0000
    669 H         193.4192  138.2501  156.0585 H        42        0    0.0000
    670 H         192.9368  140.8395  158.7625 H        42        0    0.0000
    671 H         193.9276  139.3808  158.6516 H        42        0    0.0000
    672 H         195.5639  140.9503  159.3390 H        42        0    0.0000
    673 H         193.9914  142.9601  157.7106 H        42        0    0.0000
    674 H         195.7409  143.1263  157.6887 H        42        0    0.0000
    675 C         194.8792  143.4042  159.6521 C.3      43        0    0.0000
    676 C         195.8585  144.5799  159.7792 C.3      43        0    0.0000
    677 H         193.8622  143.7913  159.7946 H        43        0    0.0000
    678 H         195.0447  142.6603  160.4403 H        43        0    0.0000
    679 H         195.8986  145.1673  158.8544 H        43        0    0.0000
    680 H         195.4838  145.2520  160.5618 H        43        0    0.0000
    681 C         197.0233  140.5104  159.1738 C.3      44        0    0.0000
    682 C         196.8701  141.9906  158.8529 C.3      44        0    0.0000
    683 C         197.6125  142.6694  160.0086 C.3      44        0    0.0000
    684 C         197.3088  144.1584  160.2007 C.3      44        0    0.0000
    685 C         197.3552  141.7749  161.2371 C.3      44        0    0.0000
    686 C         196.7708  140.4603  160.6842 C.3      44        0    0.0000
    687 C         197.2391  139.1824  161.3871 C.3      44        0    0.0000
    688 H         196.3096  139.8953  158.6170 H        44        0    0.0000
    689 H         198.0343  140.1781  158.9137 H        44        0    0.0000
    690 H         197.3029  142.2449  157.8803 H        44        0    0.0000
    691 H         195.8076  142.2567  158.8326 H        44        0    0.0000
    692 H         198.6873  142.5962  159.7841 H        44        0    0.0000
    693 H         197.4598  144.4216  161.2544 H        44        0    0.0000
    694 H         198.0293  144.7487  159.6222 H        44        0    0.0000
    695 H         196.6492  142.2193  161.9470 H        44        0    0.0000
    696 H         198.2922  141.6272  161.7850 H        44        0    0.0000
    697 H         195.6810  140.5142  160.8274 H        44        0    0.0000
    698 H         197.8387  139.4551  162.2636 H        44        0    0.0000
    699 H         196.3640  138.6378  161.7610 H        44        0    0.0000
    700 C         199.7303  135.3187  162.2294 C.3      45        0    0.0000
    701 C         198.6286  136.3788  162.1495 C.3      45        0    0.0000
    702 C         199.1794  137.5065  161.2668 C.3      45        0    0.0000
    703 C         198.0763  138.2259  160.4858 C.3      45        0    0.0000
    704 C         200.2166  136.7911  160.3947 C.3      45        0    0.0000
    705 C         200.9008  135.8501  161.3918 C.3      45        0    0.0000
    706 C         201.7158  134.7237  160.7500 C.3      45        0    0.0000
    707 H         200.0382  135.1389  163.2651 H        45        0    0.0000
    708 H         199.3521  134.3687  161.8333 H        45        0    0.0000
    709 H         198.3607  136.7532  163.1433 H        45        0    0.0000
    710 H         197.7251  135.9343  161.7153 H        45        0    0.0000
    711 H         199.7019  138.2249  161.9152 H        45        0    0.0000
    712 H         197.4014  137.4826  160.0448 H        45        0    0.0000
    713 H         198.5081  138.7938  159.6534 H        45        0    0.0000
    714 H         200.9247  137.4929  159.9427 H        45        0    0.0000
    715 H         199.7304  136.2251  159.5903 H        45        0    0.0000
    716 H         201.5494  136.4471  162.0493 H        45        0    0.0000
    717 H         202.4774  135.1396  160.0801 H        45        0    0.0000
    718 H         201.0542  134.1055  160.1315 H        45        0    0.0000
    719 C         203.5016  134.9759  165.2389 C.3      46        0    0.0000
    720 C         202.3979  134.7788  164.2110 C.3      46        0    0.0000
    721 C         203.1636  134.5711  162.8982 C.3      46        0    0.0000
    722 C         202.3984  133.8123  161.8065 C.3      46        0    0.0000
    723 C         204.5224  133.9611  163.2999 C.3      46        0    0.0000
    724 C         204.5348  133.9206  164.8390 C.3      46        0    0.0000
    725 C         205.9023  134.1816  165.4752 C.3      46        0    0.0000
    726 H         203.9180  135.9875  165.1598 H        46        0    0.0000
    727 H         203.1392  134.8335  166.2616 H        46        0    0.0000
    728 H         201.7973  133.9038  164.4820 H        46        0    0.0000
    729 H         201.7274  135.6425  164.1609 H        46        0    0.0000
    730 H         203.3770  135.5700  162.4892 H        46        0    0.0000
    731 H         203.0910  133.1360  161.2914 H        46        0    0.0000
    732 H         201.6350  133.1813  162.2769 H        46        0    0.0000
    733 H         205.3277  134.5979  162.9131 H        46        0    0.0000
    734 H         204.6832  132.9602  162.8856 H        46        0    0.0000
    735 H         204.1633  132.9363  165.1593 H        46        0    0.0000
    736 H         205.7896  134.7986  166.3745 H        46        0    0.0000
    737 H         206.3386  133.2294  165.7997 H        46        0    0.0000
    738 C         204.6517  134.7180  161.4321 C.3      47        0    0.0000
    739 C         204.8309  134.9224  162.9299 C.3      47        0    0.0000
    740 C         206.3500  135.0578  163.0769 C.3      47        0    0.0000
    741 C         206.8917  134.8766  164.4982 C.3      47        0    0.0000
    742 C         206.9463  134.1151  162.0134 C.3      47        0    0.0000
    743 C         205.7762  133.7373  161.0840 C.3      47        0    0.0000
    744 C         206.1219  133.6348  159.5953 C.3      47        0    0.0000
    745 H         203.6639  134.3139  161.1899 H        47        0    0.0000
    746 H         204.7643  135.6756  160.9119 H        47        0    0.0000
    747 H         204.3023  135.8115  163.2873 H        47        0    0.0000
    748 H         204.4403  134.0537  163.4712 H        47        0    0.0000
    749 H         206.6099  136.0827  162.7719 H        47        0    0.0000
    750 H         207.8167  134.2892  164.4566 H        47        0    0.0000
    751 H         207.1599  135.8578  164.9074 H        47        0    0.0000
    752 H         207.3792  133.2061  162.4448 H        47        0    0.0000
    753 H         207.7603  134.6252  161.4872 H        47        0    0.0000
    754 H         205.4356  132.7381  161.3951 H        47        0    0.0000
    755 H         205.2651  133.2124  159.0571 H        47        0    0.0000
    756 H         206.2802  134.6428  159.1939 H        47        0    0.0000
    757 C         211.0170  133.8343  159.2239 C.3      48        0    0.0000
    758 C         209.9700  132.7324  159.1683 C.3      48        0    0.0000
    759 C         208.7082  133.4086  159.7193 C.3      48        0    0.0000
    760 C         207.3815  132.7704  159.2884 C.3      48        0    0.0000
    761 C         208.8599  134.9076  159.3883 C.3      48        0    0.0000
    762 C         210.2467  135.0637  158.7377 C.3      48        0    0.0000
    763 C         210.9698  136.3694  159.0774 C.3      48        0    0.0000
    764 H         211.3709  133.9704  160.2531 H        48        0    0.0000
    765 H         211.8812  133.6105  158.5910 H        48        0    0.0000
    766 H         209.8421  132.4008  158.1322 H        48        0    0.0000
    767 H         210.2609  131.8620  159.7647 H        48        0    0.0000
    768 H         208.7509  133.3236  160.8154 H        48        0    0.0000
    769 H         207.4162  132.5712  158.2106 H        48        0    0.0000
    770 H         207.2739  131.7984  159.7841 H        48        0    0.0000
    771 H         208.7899  135.4870  160.3173 H        48        0    0.0000
    772 H         208.0759  135.2818  158.7216 H        48        0    0.0000
    773 H         210.1250  134.9849  157.6476 H        48        0    0.0000
    774 H         210.5508  137.1970  158.4928 H        48        0    0.0000
    775 H         210.8011  136.6129  160.1331 H        48        0    0.0000
    776 C         213.7737  139.1910  157.9719 C.3      49        0    0.0000
    777 C         212.5371  138.4371  157.4751 C.3      49        0    0.0000
    778 C         212.8983  136.9477  157.4896 C.3      49        0    0.0000
    779 C         212.5011  136.2866  158.8230 C.3      49        0    0.0000
    780 C         214.4084  136.9808  157.2220 C.3      49        0    0.0000
    781 C         214.9153  138.1638  158.0508 C.3      49        0    0.0000
    782 C         216.2712  138.6823  157.5585 C.3      49        0    0.0000
    783 H         214.0013  140.0182  157.2901 H        49        0    0.0000
    784 H         213.5880  139.6269  158.9602 H        49        0    0.0000
    785 H         212.3240  138.7480  156.4445 H        49        0    0.0000
    786 H         211.6487  138.6718  158.0703 H        49        0    0.0000
    787 H         212.3829  136.4320  156.6692 H        49        0    0.0000
    788 H         213.0146  136.7985  159.6459 H        49        0    0.0000
    789 H         212.8212  135.2398  158.8583 H        49        0    0.0000
    790 H         214.5841  137.1620  156.1535 H        49        0    0.0000
    791 H         214.9201  136.0501  157.4847 H        49        0    0.0000
    792 H         215.0156  137.8374  159.0956 H        49        0    0.0000
    793 H         216.7619  139.2707  158.3424 H        49        0    0.0000
    794 H         216.1162  139.3544  156.7062 H        49        0    0.0000
    795 C         217.2081  137.5219  157.1155 C.3      50        0    0.0000
    796 C         218.2899  137.9426  156.1105 C.3      50        0    0.0000
    797 H         217.7086  137.1556  158.0210 H        50        0    0.0000
    798 H         216.6081  136.6891  156.7305 H        50        0    0.0000
    799 H         217.8911  138.6389  155.3634 H        50        0    0.0000
    800 H         219.0715  138.4843  156.6584 H        50        0    0.0000
    801 C         216.4690  135.2072  153.0164 C.3      51        0    0.0000
    802 C         216.8690  136.3288  153.9628 C.3      51        0    0.0000
    803 C         218.0276  135.7241  154.7660 C.3      51        0    0.0000
    804 C         218.9925  136.7401  155.3902 C.3      51        0    0.0000
    805 C         218.6776  134.6780  153.8372 C.3      51        0    0.0000
    806 C         217.8176  134.6463  152.5605 C.3      51        0    0.0000
    807 C         217.6798  133.2649  151.9156 C.3      51        0    0.0000
    808 H         215.8853  134.4485  153.5519 H        51        0    0.0000
    809 H         215.8684  135.5732  152.1781 H        51        0    0.0000
    810 H         217.1810  137.2037  153.3824 H        51        0    0.0000
    811 H         216.0394  136.6339  154.6084 H        51        0    0.0000
    812 H         217.5815  135.1664  155.6029 H        51        0    0.0000
    813 H         219.6336  136.2234  156.1144 H        51        0    0.0000
    814 H         219.6543  137.1325  154.6089 H        51        0    0.0000
    815 H         218.6759  133.7034  154.3411 H        51        0    0.0000
    816 H         219.7206  134.9076  153.5951 H        51        0    0.0000
    817 H         218.2547  135.3476  151.8350 H        51        0    0.0000
    818 H         216.9389  132.6662  152.4586 H        51        0    0.0000
    819 H         217.3032  133.3788  150.8922 H        51        0    0.0000
    820 C         221.0639  130.1951  150.7030 C.3      52        0    0.0000
    821 C         219.7806  130.8024  150.1300 C.3      52        0    0.0000
    822 C         218.8511  131.0630  151.3204 C.3      52        0    0.0000
    823 C         219.0276  132.4918  151.8683 C.3      52        0    0.0000
    824 C         219.2608  129.9531  152.2969 C.3      52        0    0.0000
    825 C         220.7863  129.8928  152.1850 C.3      52        0    0.0000
    826 C         221.3547  128.5573  152.6779 C.3      52        0    0.0000
    827 H         221.3335  129.2969  150.1360 H        52        0    0.0000
    828 H         221.8984  130.8997  150.6106 H        52        0    0.0000
    829 H         219.3127  130.0712  149.4586 H        52        0    0.0000
    830 H         219.9826  131.6992  149.5355 H        52        0    0.0000
    831 H         217.8063  130.9260  151.0134 H        52        0    0.0000
    832 H         219.7180  133.0438  151.2191 H        52        0    0.0000
    833 H         219.4782  132.4817  152.8664 H        52        0    0.0000
    834 H         218.8178  129.0023  151.9727 H        52        0    0.0000
    835 H         218.9344  130.1325  153.3256 H        52        0    0.0000
    836 H         221.2107  130.7066  152.7896 H        52        0    0.0000
    837 H         221.6443  128.6321  153.7325 H        52        0    0.0000
    838 H         222.2645  128.3187  152.1144 H        52        0    0.0000
    839 C         220.3371  127.3942  152.4992 C.3      53        0    0.0000
    840 C         219.5743  127.0302  153.7810 C.3      53        0    0.0000
    841 H         220.9133  126.5147  152.1845 H        53        0    0.0000
    842 H         219.6490  127.6282  151.6784 H        53        0    0.0000
    843 H         219.9628  126.0714  154.1477 H        53        0    0.0000
    844 H         219.7539  127.7652  154.5744 H        53        0    0.0000
    845 C         216.9748  124.0085  151.3187 C.3      54        0    0.0000
    846 C         217.7100  124.5474  152.5364 C.3      54        0    0.0000
    847 C         217.7011  126.0592  152.3007 C.3      54        0    0.0000
    848 C         218.0314  126.8435  153.5730 C.3      54        0    0.0000
    849 C         216.3004  126.3311  151.7220 C.3      54        0    0.0000
    850 C         215.8091  124.9894  151.1405 C.3      54        0    0.0000
    851 C         215.2235  125.0608  149.7245 C.3      54        0    0.0000
    852 H         216.6259  122.9826  151.4731 H        54        0    0.0000
    853 H         217.6488  124.0065  150.4553 H        54        0    0.0000
    854 H         217.1679  124.2865  153.4535 H        54        0    0.0000
    855 H         218.7253  124.1464  152.6125 H        54        0    0.0000
    856 H         218.4442  126.2909  151.5238 H        54        0    0.0000
    857 H         217.5489  127.8277  153.5466 H        54        0    0.0000
    858 H         217.6206  126.3149  154.4414 H        54        0    0.0000
    859 H         215.6041  126.6571  152.5047 H        54        0    0.0000
    860 H         216.3388  127.1335  150.9778 H        54        0    0.0000
    861 H         214.9952  124.6433  151.7949 H        54        0    0.0000
    862 H         216.0322  124.9307  148.9956 H        54        0    0.0000
    863 H         214.8111  126.0634  149.5603 H        54        0    0.0000
    864 C         212.7550  124.5957  145.9467 C.3      55        0    0.0000
    865 C         213.8213  124.8512  147.0009 C.3      55        0    0.0000
    866 C         213.1507  124.4021  148.3053 C.3      55        0    0.0000
    867 C         214.1118  124.0116  149.4353 C.3      55        0    0.0000
    868 C         212.1318  123.3177  147.8987 C.3      55        0    0.0000
    869 C         212.1809  123.2395  146.3618 C.3      55        0    0.0000
    870 C         210.8345  122.9533  145.6920 C.3      55        0    0.0000
    871 H         211.9879  125.3787  145.9849 H        55        0    0.0000
    872 H         213.1744  124.5757  144.9362 H        55        0    0.0000
    873 H         214.7136  124.2594  146.7699 H        55        0    0.0000
    874 H         214.1178  125.9043  147.0350 H        55        0    0.0000
    875 H         212.5669  125.2573  148.6773 H        55        0    0.0000
    876 H         213.5344  123.8501  150.3535 H        55        0    0.0000
    877 H         214.5841  123.0533  149.1888 H        55        0    0.0000
    878 H         211.1355  123.6147  148.2493 H        55        0    0.0000
    879 H         212.3453  122.3396  148.3425 H        55        0    0.0000
    880 H         212.9033  122.4593  146.0809 H        55        0    0.0000
    881 H         210.1102  123.7350  145.9498 H        55        0    0.0000
    882 H         210.9577  122.9852  144.6029 H        55        0    0.0000
    883 C         210.2542  121.5667  146.0881 C.3      56        0    0.0000
    884 C         209.3312  120.9505  145.0271 C.3      56        0    0.0000
    885 H         209.6674  121.7185  147.0031 H        56        0    0.0000
    886 H         211.0720  120.8850  146.3498 H        56        0    0.0000
    887 H         208.3687  121.4765  145.0662 H        56        0    0.0000
    888 H         209.7293  121.1001  144.0166 H        56        0    0.0000
    889 C         211.6411  117.8406  147.3534 C.3      57        0    0.0000
    890 C         211.2107  119.0915  146.5834 C.3      57        0    0.0000
    891 C         210.3102  118.6110  145.4313 C.3      57        0    0.0000
    892 C         209.0253  119.4295  145.2546 C.3      57        0    0.0000
    893 C         210.0255  117.1411  145.7565 C.3      57        0    0.0000
    894 C         211.2969  116.6474  146.4553 C.3      57        0    0.0000
    895 C         212.4174  116.2974  145.4577 C.3      57        0    0.0000
    896 H         212.6948  117.8842  147.6452 H        57        0    0.0000
    897 H         211.0538  117.7758  148.2784 H        57        0    0.0000
    898 H         210.7032  119.7904  147.2573 H        57        0    0.0000
    899 H         212.0874  119.6107  146.1787 H        57        0    0.0000
    900 H         210.8929  118.6477  144.4997 H        57        0    0.0000
    901 H         208.4710  119.0525  144.3869 H        57        0    0.0000
    902 H         208.3716  119.3088  146.1261 H        57        0    0.0000
    903 H         209.7811  116.5626  144.8598 H        57        0    0.0000
    904 H         209.1746  117.0602  146.4453 H        57        0    0.0000
    905 H         211.0627  115.7659  147.0655 H        57        0    0.0000
    906 H         213.2190  115.7318  145.9454 H        57        0    0.0000
    907 H         212.8666  117.2220  145.0759 H        57        0    0.0000
    908 C         211.8779  115.4846  144.2452 C.3      58        0    0.0000
    909 C         212.4448  114.0611  144.1465 C.3      58        0    0.0000
    910 H         210.7904  115.4099  144.3725 H        58        0    0.0000
    911 H         212.0472  116.0465  143.3191 H        58        0    0.0000
    912 H         212.6137  113.7705  143.1030 H        58        0    0.0000
    913 H         213.4262  114.0506  144.6378 H        58        0    0.0000
    914 C         208.8605  111.2567  145.5631 C.3      59        0    0.0000
    915 C         209.6106  111.4819  144.2474 C.3      59        0    0.0000
    916 C         210.1407  112.9193  144.2872 C.3      59        0    0.0000
    917 C         211.5686  112.9754  144.8622 C.3      59        0    0.0000
    918 C         209.0831  113.6281  145.1429 C.3      59        0    0.0000
    919 C         208.7601  112.6265  146.2545 C.3      59        0    0.0000
    920 C         207.4058  112.9062  146.9159 C.3      59        0    0.0000
    921 H         207.8773  110.8182  145.3580 H        59        0    0.0000
    922 H         209.4043  110.5501  146.2006 H        59        0    0.0000
    923 H         208.9027  111.3800  143.4151 H        59        0    0.0000
    924 H         210.3967  110.7359  144.0921 H        59        0    0.0000
    925 H         210.1482  113.3411  143.2740 H        59        0    0.0000
    926 H         212.0506  111.9998  144.7256 H        59        0    0.0000
    927 H         211.5556  113.1690  145.9401 H        59        0    0.0000
    928 H         208.1909  113.8198  144.5325 H        59        0    0.0000
    929 H         209.4173  114.5893  145.5448 H        59        0    0.0000
    930 H         209.5494  112.6881  147.0168 H        59        0    0.0000
    931 H         207.5457  113.4584  147.8524 H        59        0    0.0000
    932 H         206.9245  111.9560  147.1758 H        59        0    0.0000
    933 C         206.9399  112.2725  142.5036 C.3      60        0    0.0000
    934 C         207.2252  112.2210  143.9968 C.3      60        0    0.0000
    935 C         206.8157  113.6152  144.4882 C.3      60        0    0.0000
    936 C         206.4576  113.7060  145.9770 C.3      60        0    0.0000
    937 C         205.7210  114.0962  143.5136 C.3      60        0    0.0000
    938 C         205.5973  113.0033  142.4362 C.3      60        0    0.0000
    939 C         205.2932  113.5231  141.0290 C.3      60        0    0.0000
    940 H         207.7247  112.8378  141.9864 H        60        0    0.0000
    941 H         206.8896  111.2727  142.0615 H        60        0    0.0000
    942 H         206.6256  111.4281  144.4569 H        60        0    0.0000
    943 H         208.2784  112.0073  144.2043 H        60        0    0.0000
    944 H         207.6823  114.2762  144.3375 H        60        0    0.0000
    945 H         206.4685  114.7593  146.2819 H        60        0    0.0000
    946 H         205.4313  113.3481  146.1211 H        60        0    0.0000
    947 H         206.0296  115.0531  143.0746 H        60        0    0.0000
    948 H         204.7562  114.2682  144.0022 H        60        0    0.0000
    949 H         204.8082  112.3030  142.7469 H        60        0    0.0000
    950 H         205.5917  114.5745  140.9414 H        60        0    0.0000
    951 H         205.8914  112.9645  140.2993 H        60        0    0.0000
    952 C         202.3607  110.2746  142.2386 C.3      61        0    0.0000
    953 C         203.4852  111.3025  142.0880 C.3      61        0    0.0000
    954 C         203.3112  111.9309  140.6992 C.3      61        0    0.0000
    955 C         203.7911  113.3843  140.6537 C.3      61        0    0.0000
    956 C         201.8169  111.7428  140.4166 C.3      61        0    0.0000
    957 C         201.5540  110.3248  140.9344 C.3      61        0    0.0000
    958 C         200.0760  109.9884  141.1509 C.3      61        0    0.0000
    959 H         202.7583  109.2695  142.4161 H        61        0    0.0000
    960 H         201.7405  110.5362  143.1043 H        61        0    0.0000
    961 H         204.4707  110.8348  142.1868 H        61        0    0.0000
    962 H         203.4014  112.0542  142.8820 H        61        0    0.0000
    963 H         203.8831  111.3300  139.9771 H        61        0    0.0000
    964 H         203.1993  113.9830  141.3563 H        61        0    0.0000
    965 H         203.6232  113.8091  139.6571 H        61        0    0.0000
    966 H         201.5871  111.8381  139.3506 H        61        0    0.0000
    967 H         201.2173  112.4792  140.9662 H        61        0    0.0000
    968 H         201.9972  109.6062  140.2296 H        61        0    0.0000
    969 H         199.7976  109.1040  140.5659 H        61        0    0.0000
    970 H         199.4586  110.8172  140.7841 H        61        0    0.0000
    971 C         199.7383  109.7457  142.6476 C.3      62        0    0.0000
    972 C         199.5316  108.2678  143.0088 C.3      62        0    0.0000
    973 H         200.5891  110.1226  143.2295 H        62        0    0.0000
    974 H         198.8703  110.3513  142.9333 H        62        0    0.0000
    975 H         198.7337  108.1463  143.7508 H        62        0    0.0000
    976 H         199.2026  107.7392  142.1049 H        62        0    0.0000
    977 C         203.2084  109.8966  145.0230 C.3      63        0    0.0000
    978 C         201.7879  109.6956  144.4975 C.3      63        0    0.0000
    979 C         201.4291  108.2208  144.7490 C.3      63        0    0.0000
    980 C         200.8312  107.5460  143.5074 C.3      63        0    0.0000
    981 C         202.7352  107.5793  145.2424 C.3      63        0    0.0000
    982 C         203.4872  108.7123  145.9522 C.3      63        0    0.0000
    983 C         203.0040  108.9875  147.3879 C.3      63        0    0.0000
    984 H         203.9074  109.8646  144.1774 H        63        0    0.0000
    985 H         203.3336  110.8692  145.5092 H        63        0    0.0000
    986 H         201.7289  109.9744  143.4397 H        63        0    0.0000
    987 H         201.0881  110.3419  145.0403 H        63        0    0.0000
    988 H         200.6926  108.1874  145.5642 H        63        0    0.0000
    989 H         200.6116  106.4924  143.7151 H        63        0    0.0000
    990 H         201.5690  107.5616  142.6962 H        63        0    0.0000
    991 H         202.5498  106.7158  145.8886 H        63        0    0.0000
    992 H         203.3334  107.2299  144.3907 H        63        0    0.0000
    993 H         204.5639  108.5001  145.9675 H        63        0    0.0000
    994 H         202.0172  109.4627  147.3909 H        63        0    0.0000
    995 H         203.6921  109.6915  147.8715 H        63        0    0.0000
    996 C         205.6368  105.2242  147.2639 C.3      64        0    0.0000
    997 C         205.0509  106.6385  147.2476 C.3      64        0    0.0000
    998 C         203.5474  106.4848  147.5120 C.3      64        0    0.0000
    999 C         202.9594  107.6924  148.2472 C.3      64        0    0.0000
   1000 C         203.4627  105.1639  148.2839 C.3      64        0    0.0000
   1001 C         204.4628  104.2749  147.5374 C.3      64        0    0.0000
   1002 C         204.8948  103.0199  148.3009 C.3      64        0    0.0000
   1003 H         206.1245  104.9820  146.3135 H        64        0    0.0000
   1004 H         206.4004  105.1544  148.0479 H        64        0    0.0000
   1005 H         205.2323  107.1357  146.2887 H        64        0    0.0000
   1006 H         205.5351  107.2431  148.0238 H        64        0    0.0000
   1007 H         203.0405  106.3586  146.5442 H        64        0    0.0000
   1008 H         203.5266  107.8661  149.1695 H        64        0    0.0000
   1009 H         201.9246  107.4885  148.5464 H        64        0    0.0000
   1010 H         202.4516  104.7449  148.2679 H        64        0    0.0000
   1011 H         203.7633  105.3004  149.3303 H        64        0    0.0000
   1012 H         204.0230  103.9867  146.5714 H        64        0    0.0000
   1013 H         205.8635  103.1851  148.7870 H        64        0    0.0000
   1014 H         205.0335  102.1947  147.5921 H        64        0    0.0000
   1015 C         203.8496  102.5866  149.3651 C.3      65        0    0.0000
   1016 C         204.3695  101.5388  150.3598 C.3      65        0    0.0000
   1017 H         203.0047  102.1478  148.8190 H        65        0    0.0000
   1018 H         203.4620  103.4712  149.8839 H        65        0    0.0000
   1019 H         204.5643  100.6112  149.8063 H        65        0    0.0000
   1020 H         205.3247  101.8470  150.8008 H        65        0    0.0000
   1021 C         204.7191   99.0455  154.2082 C.3      66        0    0.0000
   1022 C         204.9975   99.7516  152.8790 C.3      66        0    0.0000
   1023 C         203.6570   99.8151  152.1251 C.3      66        0    0.0000
   1024 C         203.3525  101.1814  151.4984 C.3      66        0    0.0000
   1025 C         202.6124   99.4059  153.1684 C.3      66        0    0.0000
   1026 C         203.3378   98.3973  154.0656 C.3      66        0    0.0000
   1027 C         203.3912   96.9892  153.4430 C.3      66        0    0.0000
   1028 H         205.5135   98.3396  154.4686 H        66        0    0.0000
   1029 H         204.6828   99.7976  155.0067 H        66        0    0.0000
   1030 H         205.4294  100.7414  153.0636 H        66        0    0.0000
   1031 H         205.7284   99.1840  152.2912 H        66        0    0.0000
   1032 H         203.6688   99.0501  151.3356 H        66        0    0.0000
   1033 H         202.3426  101.1681  151.0714 H        66        0    0.0000
   1034 H         203.3631  101.9650  152.2647 H        66        0    0.0000
   1035 H         201.7109   98.9917  152.7054 H        66        0    0.0000
   1036 H         202.3087  100.2750  153.7662 H        66        0    0.0000
   1037 H         202.8378   98.3465  155.0412 H        66        0    0.0000
   1038 H         203.9971   96.3097  154.0525 H        66        0    0.0000
   1039 H         203.8689   97.0449  152.4576 H        66        0    0.0000
   1040 C         200.9500   99.5112  154.8898 C.3      67        0    0.0000
   1041 C         201.2473   98.8147  153.5628 C.3      67        0    0.0000
   1042 C         200.8675   97.3352  153.7466 C.3      67        0    0.0000
   1043 C         201.9689   96.3852  153.2580 C.3      67        0    0.0000
   1044 C         200.5402   97.1981  155.2415 C.3      67        0    0.0000
   1045 C         200.0110   98.5767  155.6570 C.3      67        0    0.0000
   1046 C         198.5361   98.8229  155.2904 C.3      67        0    0.0000
   1047 H         201.8871   99.6216  155.4504 H        67        0    0.0000
   1048 H         200.5401  100.5156  154.7447 H        67        0    0.0000
   1049 H         202.2979   98.9539  153.2854 H        67        0    0.0000
   1050 H         200.6417   99.2529  152.7608 H        67        0    0.0000
   1051 H         199.9513   97.1482  153.1687 H        67        0    0.0000
   1052 H         201.8110   96.1289  152.2040 H        67        0    0.0000
   1053 H         201.9148   95.4470  153.8234 H        67        0    0.0000
   1054 H         199.8287   96.3891  155.4334 H        67        0    0.0000
   1055 H         201.4515   96.9766  155.8121 H        67        0    0.0000
   1056 H         200.1445   98.7234  156.7365 H        67        0    0.0000
   1057 H         197.9885   97.8796  155.1912 H        67        0    0.0000
   1058 H         198.4851   99.3188  154.3134 H        67        0    0.0000
   1059 C         197.8203   99.7323  156.3288 C.3      68        0    0.0000
   1060 C         196.4670   99.1872  156.8074 C.3      68        0    0.0000
   1061 H         198.4854   99.8041  157.1989 H        68        0    0.0000
   1062 H         197.7214  100.7469  155.9254 H        68        0    0.0000
   1063 H         195.6456   99.5514  156.1793 H        68        0    0.0000
   1064 H         196.4830   98.0950  156.7008 H        68        0    0.0000
   1065 C         194.8555  102.4423  158.9279 C.3      69        0    0.0000
   1066 C         196.0191  102.0093  158.0319 C.3      69        0    0.0000
   1067 C         196.7204  100.8538  158.7544 C.3      69        0    0.0000
   1068 C         196.1548   99.4904  158.3138 C.3      69        0    0.0000
   1069 C         196.4716  101.1983  160.2283 C.3      69        0    0.0000
   1070 C         195.0250  101.6979  160.2628 C.3      69        0    0.0000
   1071 C         194.7307  102.5466  161.5049 C.3      69        0    0.0000
   1072 H         194.8690  103.5312  159.0513 H        69        0    0.0000
   1073 H         193.8962  102.1797  158.4675 H        69        0    0.0000
   1074 H         196.7177  102.8493  157.9293 H        69        0    0.0000
   1075 H         195.6831  101.7475  157.0235 H        69        0    0.0000
   1076 H         197.7964  100.8791  158.5394 H        69        0    0.0000
   1077 H         195.0660   99.4924  158.4457 H        69        0    0.0000
   1078 H         196.5434   98.6787  158.9380 H        69        0    0.0000
   1079 H         197.1577  101.9986  160.5351 H        69        0    0.0000
   1080 H         196.6277  100.3549  160.9076 H        69        0    0.0000
   1081 H         194.3567  100.8254  160.2597 H        69        0    0.0000
   1082 H         193.9501  102.0747  162.1129 H        69        0    0.0000
   1083 H         194.3442  103.5245  161.1944 H        69        0    0.0000
   1084 C         195.9902  106.2361  163.9191 C.3      70        0    0.0000
   1085 C         195.6288  105.2952  162.7782 C.3      70        0    0.0000
   1086 C         195.8895  103.9110  163.3812 C.3      70        0    0.0000
   1087 C         196.0041  102.7650  162.3715 C.3      70        0    0.0000
   1088 C         197.1011  104.0971  164.3155 C.3      70        0    0.0000
   1089 C         197.2780  105.6197  164.4754 C.3      70        0    0.0000
   1090 C         197.6830  106.0942  165.8743 C.3      70        0    0.0000
   1091 H         196.1428  107.2621  163.5701 H        70        0    0.0000
   1092 H         195.1839  106.2453  164.6607 H        70        0    0.0000
   1093 H         194.5881  105.4168  162.4622 H        70        0    0.0000
   1094 H         196.2723  105.4964  161.9147 H        70        0    0.0000
   1095 H         195.0279  103.6759  164.0242 H        70        0    0.0000
   1096 H         196.8541  102.9577  161.7062 H        70        0    0.0000
   1097 H         196.2285  101.8355  162.9082 H        70        0    0.0000
   1098 H         198.0214  103.6621  163.9110 H        70        0    0.0000
   1099 H         196.9112  103.5883  165.2668 H        70        0    0.0000
   1100 H         198.0923  105.9161  163.7971 H        70        0    0.0000
   1101 H         198.2113  107.0512  165.7888 H        70        0    0.0000
   1102 H         196.7785  106.2854  166.4638 H        70        0    0.0000
   1103 C         198.5861  105.0918  166.6540 C.3      71        0    0.0000
   1104 C         198.6552  105.3590  168.1644 C.3      71        0    0.0000
   1105 H         199.5990  105.1927  166.2437 H        71        0    0.0000
   1106 H         198.2641  104.0649  166.4449 H        71        0    0.0000
   1107 H         199.1551  106.3241  168.3168 H        71        0    0.0000
   1108 H         197.6531  105.4531  168.5991 H        71        0    0.0000
   1109 C         199.4796  104.2909  168.9633 C.3      72        0    0.0000
   1110 C         199.2908  104.3676  170.4851 C.3      72        0    0.0000
   1111 H         200.5383  104.4772  168.7417 H        72        0    0.0000
   1112 H         199.2516  103.2882  168.5831 H        72        0    0.0000
   1113 H         199.7189  105.3161  170.8339 H        72        0    0.0000
   1114 H         198.2284  104.3854  170.7548 H        72        0    0.0000
   1115 C         197.8763  101.8624  174.0659 C.3      73        0    0.0000
   1116 C         198.0360  102.6712  172.7758 C.3      73        0    0.0000
   1117 C         199.5087  103.0971  172.7141 C.3      73        0    0.0000
   1118 C         200.0177  103.2251  171.2756 C.3      73        0    0.0000
   1119 C         200.2167  102.0249  173.5489 C.3      73        0    0.0000
   1120 C         199.2592  101.8334  174.7298 C.3      73        0    0.0000
   1121 C         199.4903  100.5532  175.5375 C.3      73        0    0.0000
   1122 H         197.1309  102.3121  174.7305 H        73        0    0.0000
   1123 H         197.5269  100.8519  173.8223 H        73        0    0.0000
   1124 H         197.3740  103.5438  172.7661 H        73        0    0.0000
   1125 H         197.7626  102.0464  171.9171 H        73        0    0.0000
   1126 H         199.6075  104.0641  173.2285 H        73        0    0.0000
   1127 H         199.8543  102.2777  170.7482 H        73        0    0.0000
   1128 H         201.0986  103.4079  171.2696 H        73        0    0.0000
   1129 H         201.2094  102.3503  173.8758 H        73        0    0.0000
   1130 H         200.3288  101.0939  172.9791 H        73        0    0.0000
   1131 H         199.3398  102.7078  175.3920 H        73        0    0.0000
   1132 H         199.7501   99.7238  174.8694 H        73        0    0.0000
   1133 H         198.5592  100.2716  176.0438 H        73        0    0.0000
   1134 C         199.2603   99.4788  179.9389 C.3      74        0    0.0000
   1135 C         199.0238  100.0513  178.5483 C.3      74        0    0.0000
   1136 C         200.3903   99.8879  177.8747 C.3      74        0    0.0000
   1137 C         200.6030  100.7227  176.6082 C.3      74        0    0.0000
   1138 C         201.4244  100.1069  178.9963 C.3      74        0    0.0000
   1139 C         200.6302  100.0519  180.3161 C.3      74        0    0.0000
   1140 C         201.3361   99.3545  181.4829 C.3      74        0    0.0000
   1141 H         198.4797   99.7814  180.6438 H        74        0    0.0000
   1142 H         199.2702   98.3843  179.8917 H        74        0    0.0000
   1143 H         198.2348   99.5135  178.0135 H        74        0    0.0000
   1144 H         198.7261  101.1027  178.6267 H        74        0    0.0000
   1145 H         200.4721   98.8333  177.5710 H        74        0    0.0000
   1146 H         200.6677  101.7819  176.8843 H        74        0    0.0000
   1147 H         201.5669  100.4546  176.1598 H        74        0    0.0000
   1148 H         201.9390  101.0707  178.9186 H        74        0    0.0000
   1149 H         202.2005   99.3365  178.9341 H        74        0    0.0000
   1150 H         200.4648  101.0940  180.6288 H        74        0    0.0000
   1151 H         201.1020   98.2837  181.4545 H        74        0    0.0000
   1152 H         202.4209   99.4434  181.3504 H        74        0    0.0000
   1153 C         200.9560   99.9129  182.8872 C.3      75        0    0.0000
   1154 C         201.7207   99.2584  184.0466 C.3      75        0    0.0000
   1155 H         201.2002  100.9829  182.8793 H        75        0    0.0000
   1156 H         199.8719   99.8399  183.0327 H        75        0    0.0000
   1157 H         201.8954   98.1926  183.8580 H        75        0    0.0000
   1158 H         202.7088   99.7314  184.1128 H        75        0    0.0000
   1159 C         201.3689   96.4701  187.5736 C.3      76        0    0.0000
   1160 C         201.8109   97.1588  186.2833 C.3      76        0    0.0000
   1161 C         201.7667   98.6726  186.5538 C.3      76        0    0.0000
   1162 C         201.0363   99.4422  185.4454 C.3      76        0    0.0000
   1163 C         201.1163   98.8034  187.9397 C.3      76        0    0.0000
   1164 C         201.5063   97.5182  188.6809 C.3      76        0    0.0000
   1165 C         202.9269   97.5387  189.2741 C.3      76        0    0.0000
   1166 H         200.3143   96.1814  187.4784 H        76        0    0.0000
   1167 H         201.9381   95.5557  187.7679 H        76        0    0.0000
   1168 H         201.1685   96.8557  185.4492 H        76        0    0.0000
   1169 H         202.8343   96.8610  186.0262 H        76        0    0.0000
   1170 H         202.8028   99.0340  186.6175 H        76        0    0.0000
   1171 H         200.9837  100.5087  185.6932 H        76        0    0.0000
   1172 H         200.0028   99.0822  185.3753 H        76        0    0.0000
   1173 H         201.4354   99.7125  188.4587 H        76        0    0.0000
   1174 H         200.0233   98.8455  187.8451 H        76        0    0.0000
   1175 H         200.7839   97.3085  189.4801 H        76        0    0.0000
   1176 H         203.5631   98.2650  188.7570 H        76        0    0.0000
   1177 H         203.3924   96.5561  189.1298 H        76        0    0.0000
   1178 C         201.7147   96.3511  193.9733 C.3      77        0    0.0000
   1179 C         202.8096   96.3609  192.9037 C.3      77        0    0.0000
   1180 C         202.1362   96.7919  191.5885 C.3      77        0    0.0000
   1181 C         202.9190   97.8476  190.7980 C.3      77        0    0.0000
   1182 C         200.7511   97.2898  192.0138 C.3      77        0    0.0000
   1183 C         200.3819   96.4195  193.2198 C.3      77        0    0.0000
   1184 C         199.8496   95.0350  192.8043 C.3      77        0    0.0000
   1185 H         201.8023   95.4865  194.6380 H        77        0    0.0000
   1186 H         201.8219   97.2481  194.5967 H        77        0    0.0000
   1187 H         203.6222   97.0310  193.2054 H        77        0    0.0000
   1188 H         203.2409   95.3595  192.7902 H        77        0    0.0000
   1189 H         202.0002   95.8988  190.9618 H        77        0    0.0000
   1190 H         202.4590   98.8311  190.9514 H        77        0    0.0000
   1191 H         203.9485   97.9172  191.1678 H        77        0    0.0000
   1192 H         200.0224   97.2197  191.1998 H        77        0    0.0000
   1193 H         200.8019   98.3417  192.3236 H        77        0    0.0000
   1194 H         199.6264   96.9340  193.8273 H        77        0    0.0000
   1195 H         199.8615   94.3367  193.6485 H        77        0    0.0000
   1196 H         200.5018   94.6114  192.0312 H        77        0    0.0000
   1197 C         197.6228   91.4252  191.9362 C.3      78        0    0.0000
   1198 C         198.1078   92.7188  191.2998 C.3      78        0    0.0000
   1199 C         197.6263   93.8006  192.2750 C.3      78        0    0.0000
   1200 C         198.4069   95.1202  192.2271 C.3      78        0    0.0000
   1201 C         197.5640   93.1183  193.6571 C.3      78        0    0.0000
   1202 C         197.9235   91.6399  193.4210 C.3      78        0    0.0000
   1203 C         197.1711   90.6480  194.3115 C.3      78        0    0.0000
   1204 H         196.5470   91.2976  191.7645 H        78        0    0.0000
   1205 H         198.1406   90.5503  191.5314 H        78        0    0.0000
   1206 H         199.1995   92.6972  191.2129 H        78        0    0.0000
   1207 H         197.6949   92.8602  190.2961 H        78        0    0.0000
   1208 H         196.5896   94.0440  191.9984 H        78        0    0.0000
   1209 H         198.4649   95.4616  191.1866 H        78        0    0.0000
   1210 H         197.8492   95.8866  192.7783 H        78        0    0.0000
   1211 H         196.5486   93.2203  194.0599 H        78        0    0.0000
   1212 H         198.2421   93.5688  194.3896 H        78        0    0.0000
   1213 H         199.0061   91.5216  193.5736 H        78        0    0.0000
   1214 H         196.7905   91.1558  195.2056 H        78        0    0.0000
   1215 H         196.2971   90.2662  193.7705 H        78        0    0.0000
   1216 C         196.2720   88.4339  197.9436 C.3      79        0    0.0000
   1217 C         196.3421   89.2779  196.6786 C.3      79        0    0.0000
   1218 C         197.4658   88.6068  195.8820 C.3      79        0    0.0000
   1219 C         198.0554   89.4447  194.7433 C.3      79        0    0.0000
   1220 C         198.4756   88.1172  196.9384 C.3      79        0    0.0000
   1221 C         197.7482   88.2192  198.2934 C.3      79        0    0.0000
   1222 C         198.0312   87.0839  199.2819 C.3      79        0    0.0000
   1223 H         195.7293   88.9438  198.7456 H        79        0    0.0000
   1224 H         195.7574   87.4904  197.7309 H        79        0    0.0000
   1225 H         195.3934   89.2761  196.1329 H        79        0    0.0000
   1226 H         196.5833   90.3145  196.9383 H        79        0    0.0000
   1227 H         197.0341   87.7077  195.4170 H        79        0    0.0000
   1228 H         199.0387   89.8219  195.0485 H        79        0    0.0000
   1229 H         198.2218   88.7995  193.8726 H        79        0    0.0000
   1230 H         199.3887   88.7215  196.9668 H        79        0    0.0000
   1231 H         198.7889   87.0952  196.6993 H        79        0    0.0000
   1232 H         198.1005   89.1454  198.7721 H        79        0    0.0000
   1233 H         198.2855   87.5141  200.2579 H        79        0    0.0000
   1234 H         197.1163   86.4969  199.4251 H        79        0    0.0000
   1235 C         199.1781   86.1243  198.8437 C.3      80        0    0.0000
   1236 C         199.9309   85.4764  200.0145 C.3      80        0    0.0000
   1237 H         199.8940   86.7271  198.2705 H        80        0    0.0000
   1238 H         198.7838   85.3675  198.1554 H        80        0    0.0000
   1239 H         200.9582   85.8629  200.0143 H        80        0    0.0000
   1240 H         199.4899   85.7591  200.9776 H        80        0    0.0000
   1241 C         201.3177   82.4001  203.1265 C.3      81        0    0.0000
   1242 C         200.7271   83.5775  202.3463 C.3      81        0    0.0000
   1243 C         201.0862   83.3415  200.8734 C.3      81        0    0.0000
   1244 C         200.0349   83.9147  199.9190 C.3      81        0    0.0000
   1245 C         201.2572   81.8207  200.7960 C.3      81        0    0.0000
   1246 C         202.0090   81.5017  202.0925 C.3      81        0    0.0000
   1247 C         201.9860   80.0250  202.4966 C.3      81        0    0.0000
   1248 H         202.0275   82.7404  203.8882 H        81        0    0.0000
   1249 H         200.5132   81.8671  203.6473 H        81        0    0.0000
   1250 H         201.1282   84.5334  202.7000 H        81        0    0.0000
   1251 H         199.6411   83.6060  202.4951 H        81        0    0.0000
   1252 H         202.0597   83.8143  200.6781 H        81        0    0.0000
   1253 H         199.0552   83.4847  200.1591 H        81        0    0.0000
   1254 H         200.2619   83.6267  198.8859 H        81        0    0.0000
   1255 H         201.8234   81.5174  199.9097 H        81        0    0.0000
   1256 H         200.2829   81.3165  200.7725 H        81        0    0.0000
   1257 H         203.0501   81.8398  201.9865 H        81        0    0.0000
   1258 H         201.7652   79.3960  201.6263 H        81        0    0.0000
   1259 H         201.1777   79.8599  203.2191 H        81        0    0.0000
   1260 C         203.3241   79.5673  203.1393 C.3      82        0    0.0000
   1261 C         203.2255   79.2733  204.6430 C.3      82        0    0.0000
   1262 H         203.6196   78.6411  202.6299 H        82        0    0.0000
   1263 H         204.1070   80.3049  202.9275 H        82        0    0.0000
   1264 H         202.6858   78.3379  204.8320 H        82        0    0.0000
   1265 H         204.2429   79.1321  205.0297 H        82        0    0.0000
   1266 C         204.6597   82.6304  203.3280 C.3      83        0    0.0000
   1267 C         204.5213   81.9376  204.6858 C.3      83        0    0.0000
   1268 C         203.0126   81.8123  204.9642 C.3      83        0    0.0000
   1269 C         202.5807   80.4333  205.4780 C.3      83        0    0.0000
   1270 C         202.3472   82.1732  203.6322 C.3      83        0    0.0000
   1271 C         203.2802   83.2144  203.0045 C.3      83        0    0.0000
   1272 C         203.0667   84.6233  203.5898 C.3      83        0    0.0000
   1273 H         205.4640   83.3723  203.3293 H        83        0    0.0000
   1274 H         204.9179   81.8777  202.5721 H        83        0    0.0000
   1275 H         205.0324   80.9688  204.6662 H        83        0    0.0000
   1276 H         204.9958   82.5382  205.4707 H        83        0    0.0000
   1277 H         202.7336   82.5769  205.7033 H        83        0    0.0000
   1278 H         202.8900   80.3225  206.5242 H        83        0    0.0000
   1279 H         201.4886   80.3421  205.4582 H        83        0    0.0000
   1280 H         201.3270   82.5453  203.7711 H        83        0    0.0000
   1281 H         202.2926   81.2912  202.9811 H        83        0    0.0000
   1282 H         203.1230   83.2423  201.9188 H        83        0    0.0000
   1283 H         203.4052   84.6749  204.6305 H        83        0    0.0000
   1284 H         201.9957   84.8584  203.5911 H        83        0    0.0000
   1285 H         203.5807   85.3863  203.0052 H        83        0    0.0000
   1286 H          88.2699   97.3647   87.6338 H         0        0    0.0000
@<TRIPOS>BOND
     1     1     2      1
     2     1     6      1
     3     1     8      1
     4     1     9      1
     5     2     3      1
     6     2    10      1
     7     2    11      1
     8     3     4      1
     9     3     5      1
    10     3    12      1
    11     4    13      1
    12     4    14      1
    13     4  1286      H
    14     5     6      1
    15     5    15      1
    16     5    16      1
    17     6     7      1
    18     6    17      1
    19     7    18      1
    20     7    19      1
    21     7    23      1
    22    20    21      1
    23    20    25      1
    24    20    27      1
    25    20    28      1
    26    21    22      1
    27    21    29      1
    28    21    30      1
    29    22    23      1
    30    22    24      1
    31    22    31      1
    32    23    32      1
    33    23    33      1
    34    24    25      1
    35    24    34      1
    36    24    35      1
    37    25    26      1
    38    25    36      1
    39    26    37      1
    40    26    38      1
    41    26    39      1
    42    39    40      1
    43    39    41      1
    44    39    42      1
    45    40    43      1
    46    40    44      1
    47    40    48      1
    48    45    46      1
    49    45    50      1
    50    45    52      1
    51    45    53      1
    52    46    47      1
    53    46    54      1
    54    46    55      1
    55    47    48      1
    56    47    49      1
    57    47    56      1
    58    48    57      1
    59    48    58      1
    60    49    50      1
    61    49    59      1
    62    49    60      1
    63    50    51      1
    64    50    61      1
    65    51    62      1
    66    51    63      1
    67    51    64      1
    68    64    65      1
    69    64    66      1
    70    64    67      1
    71    65    68      1
    72    65    69      1
    73    65    73      1
    74    70    71      1
    75    70    75      1
    76    70    77      1
    77    70    78      1
    78    71    72      1
    79    71    79      1
    80    71    80      1
    81    72    73      1
    82    72    74      1
    83    72    81      1
    84    73    82      1
    85    73    83      1
    86    74    75      1
    87    74    84      1
    88    74    85      1
    89    75    76      1
    90    75    86      1
    91    76    87      1
    92    76    88      1
    93    76    92      1
    94    89    90      1
    95    89    94      1
    96    89    96      1
    97    89    97      1
    98    90    91      1
    99    90    98      1
   100    90    99      1
   101    91    92      1
   102    91    93      1
   103    91   100      1
   104    92   101      1
   105    92   102      1
   106    93    94      1
   107    93   103      1
   108    93   104      1
   109    94    95      1
   110    94   105      1
   111    95   106      1
   112    95   107      1
   113    95   108      1
   114   108   109      1
   115   108   110      1
   116   108   111      1
   117   109   112      1
   118   109   113      1
   119   109   114      1
   120   114   115      1
   121   114   116      1
   122   114   117      1
   123   115   118      1
   124   115   119      1
   125   115   120      1
   126   120   121      1
   127   120   122      1
   128   120   123      1
   129   121   124      1
   130   121   125      1
   131   121   126      1
   132   126   127      1
   133   126   128      1
   134   126   129      1
   135   127   130      1
   136   127   131      1
   137   127   135      1
   138   132   133      1
   139   132   137      1
   140   132   139      1
   141   132   140      1
   142   133   134      1
   143   133   141      1
   144   133   142      1
   145   134   135      1
   146   134   136      1
   147   134   143      1
   148   135   144      1
   149   135   145      1
   150   136   137      1
   151   136   146      1
   152   136   147      1
   153   137   138      1
   154   137   148      1
   155   138   149      1
   156   138   150      1
   157   138   154      1
   158   151   152      1
   159   151   156      1
   160   151   158      1
   161   151   159      1
   162   152   153      1
   163   152   160      1
   164   152   161      1
   165   153   154      1
   166   153   155      1
   167   153   162      1
   168   154   163      1
   169   154   164      1
   170   155   156      1
   171   155   165      1
   172   155   166      1
   173   156   157      1
   174   156   167      1
   175   157   168      1
   176   157   169      1
   177   157   170      1
   178   170   171      1
   179   170   172      1
   180   170   173      1
   181   171   174      1
   182   171   175      1
   183   171   179      1
   184   176   177      1
   185   176   181      1
   186   176   183      1
   187   176   184      1
   188   177   178      1
   189   177   185      1
   190   177   186      1
   191   178   179      1
   192   178   180      1
   193   178   187      1
   194   179   188      1
   195   179   189      1
   196   180   181      1
   197   180   190      1
   198   180   191      1
   199   181   182      1
   200   181   192      1
   201   182   193      1
   202   182   194      1
   203   182   195      1
   204   195   196      1
   205   195   197      1
   206   195   198      1
   207   196   199      1
   208   196   200      1
   209   196   204      1
   210   201   202      1
   211   201   206      1
   212   201   208      1
   213   201   209      1
   214   202   203      1
   215   202   210      1
   216   202   211      1
   217   203   204      1
   218   203   205      1
   219   203   212      1
   220   204   213      1
   221   204   214      1
   222   205   206      1
   223   205   215      1
   224   205   216      1
   225   206   207      1
   226   206   217      1
   227   207   218      1
   228   207   219      1
   229   207   223      1
   230   220   221      1
   231   220   225      1
   232   220   227      1
   233   220   228      1
   234   221   222      1
   235   221   229      1
   236   221   230      1
   237   222   223      1
   238   222   224      1
   239   222   231      1
   240   223   232      1
   241   223   233      1
   242   224   225      1
   243   224   234      1
   244   224   235      1
   245   225   226      1
   246   225   236      1
   247   226   237      1
   248   226   238      1
   249   226   242      1
   250   239   240      1
   251   239   244      1
   252   239   246      1
   253   239   247      1
   254   240   241      1
   255   240   248      1
   256   240   249      1
   257   241   242      1
   258   241   243      1
   259   241   250      1
   260   242   251      1
   261   242   252      1
   262   243   244      1
   263   243   253      1
   264   243   254      1
   265   244   245      1
   266   244   255      1
   267   245   256      1
   268   245   257      1
   269   245   261      1
   270   258   259      1
   271   258   263      1
   272   258   265      1
   273   258   266      1
   274   259   260      1
   275   259   267      1
   276   259   268      1
   277   260   261      1
   278   260   262      1
   279   260   269      1
   280   261   270      1
   281   261   271      1
   282   262   263      1
   283   262   272      1
   284   262   273      1
   285   263   264      1
   286   263   274      1
   287   264   275      1
   288   264   276      1
   289   264   277      1
   290   277   278      1
   291   277   279      1
   292   277   280      1
   293   278   281      1
   294   278   282      1
   295   278   286      1
   296   283   284      1
   297   283   288      1
   298   283   290      1
   299   283   291      1
   300   284   285      1
   301   284   292      1
   302   284   293      1
   303   285   286      1
   304   285   287      1
   305   285   294      1
   306   286   295      1
   307   286   296      1
   308   287   288      1
   309   287   297      1
   310   287   298      1
   311   288   289      1
   312   288   299      1
   313   289   300      1
   314   289   301      1
   315   289   305      1
   316   302   303      1
   317   302   307      1
   318   302   309      1
   319   302   310      1
   320   303   304      1
   321   303   311      1
   322   303   312      1
   323   304   305      1
   324   304   306      1
   325   304   313      1
   326   305   314      1
   327   305   315      1
   328   306   307      1
   329   306   316      1
   330   306   317      1
   331   307   308      1
   332   307   318      1
   333   308   319      1
   334   308   320      1
   335   308   324      1
   336   321   322      1
   337   321   326      1
   338   321   328      1
   339   321   329      1
   340   322   323      1
   341   322   330      1
   342   322   331      1
   343   323   324      1
   344   323   325      1
   345   323   332      1
   346   324   333      1
   347   324   334      1
   348   325   326      1
   349   325   335      1
   350   325   336      1
   351   326   327      1
   352   326   337      1
   353   327   338      1
   354   327   339      1
   355   327   343      1
   356   340   341      1
   357   340   345      1
   358   340   347      1
   359   340   348      1
   360   341   342      1
   361   341   349      1
   362   341   350      1
   363   342   343      1
   364   342   344      1
   365   342   351      1
   366   343   352      1
   367   343   353      1
   368   344   345      1
   369   344   354      1
   370   344   355      1
   371   345   346      1
   372   345   356      1
   373   346   357      1
   374   346   358      1
   375   346   362      1
   376   359   360      1
   377   359   364      1
   378   359   366      1
   379   359   367      1
   380   360   361      1
   381   360   368      1
   382   360   369      1
   383   361   362      1
   384   361   363      1
   385   361   370      1
   386   362   371      1
   387   362   372      1
   388   363   364      1
   389   363   373      1
   390   363   374      1
   391   364   365      1
   392   364   375      1
   393   365   376      1
   394   365   377      1
   395   365   381      1
   396   378   379      1
   397   378   383      1
   398   378   385      1
   399   378   386      1
   400   379   380      1
   401   379   387      1
   402   379   388      1
   403   380   381      1
   404   380   382      1
   405   380   389      1
   406   381   390      1
   407   381   391      1
   408   382   383      1
   409   382   392      1
   410   382   393      1
   411   383   384      1
   412   383   394      1
   413   384   395      1
   414   384   396      1
   415   384   397      1
   416   397   398      1
   417   397   399      1
   418   397   400      1
   419   398   401      1
   420   398   402      1
   421   398   406      1
   422   403   404      1
   423   403   408      1
   424   403   410      1
   425   403   411      1
   426   404   405      1
   427   404   412      1
   428   404   413      1
   429   405   406      1
   430   405   407      1
   431   405   414      1
   432   406   415      1
   433   406   416      1
   434   407   408      1
   435   407   417      1
   436   407   418      1
   437   408   409      1
   438   408   419      1
   439   409   420      1
   440   409   421      1
   441   409   425      1
   442   422   423      1
   443   422   427      1
   444   422   429      1
   445   422   430      1
   446   423   424      1
   447   423   431      1
   448   423   432      1
   449   424   425      1
   450   424   426      1
   451   424   433      1
   452   425   434      1
   453   425   435      1
   454   426   427      1
   455   426   436      1
   456   426   437      1
   457   427   428      1
   458   427   438      1
   459   428   439      1
   460   428   440      1
   461   428   444      1
   462   441   442      1
   463   441   446      1
   464   441   448      1
   465   441   449      1
   466   442   443      1
   467   442   450      1
   468   442   451      1
   469   443   444      1
   470   443   445      1
   471   443   452      1
   472   444   453      1
   473   444   454      1
   474   445   446      1
   475   445   455      1
   476   445   456      1
   477   446   447      1
   478   446   457      1
   479   447   458      1
   480   447   459      1
   481   447   463      1
   482   460   461      1
   483   460   465      1
   484   460   467      1
   485   460   468      1
   486   461   462      1
   487   461   469      1
   488   461   470      1
   489   462   463      1
   490   462   464      1
   491   462   471      1
   492   463   472      1
   493   463   473      1
   494   464   465      1
   495   464   474      1
   496   464   475      1
   497   465   466      1
   498   465   476      1
   499   466   477      1
   500   466   478      1
   501   466   479      1
   502   479   480      1
   503   479   481      1
   504   479   482      1
   505   480   483      1
   506   480   484      1
   507   480   488      1
   508   485   486      1
   509   485   490      1
   510   485   492      1
   511   485   493      1
   512   486   487      1
   513   486   494      1
   514   486   495      1
   515   487   488      1
   516   487   489      1
   517   487   496      1
   518   488   497      1
   519   488   498      1
   520   489   490      1
   521   489   499      1
   522   489   500      1
   523   490   491      1
   524   490   501      1
   525   491   502      1
   526   491   503      1
   527   491   507      1
   528   504   505      1
   529   504   509      1
   530   504   511      1
   531   504   512      1
   532   505   506      1
   533   505   513      1
   534   505   514      1
   535   506   507      1
   536   506   508      1
   537   506   515      1
   538   507   516      1
   539   507   517      1
   540   508   509      1
   541   508   518      1
   542   508   519      1
   543   509   510      1
   544   509   520      1
   545   510   521      1
   546   510   522      1
   547   510   526      1
   548   523   524      1
   549   523   528      1
   550   523   530      1
   551   523   531      1
   552   524   525      1
   553   524   532      1
   554   524   533      1
   555   525   526      1
   556   525   527      1
   557   525   534      1
   558   526   535      1
   559   526   536      1
   560   527   528      1
   561   527   537      1
   562   527   538      1
   563   528   529      1
   564   528   539      1
   565   529   540      1
   566   529   541      1
   567   529   545      1
   568   542   543      1
   569   542   547      1
   570   542   549      1
   571   542   550      1
   572   543   544      1
   573   543   551      1
   574   543   552      1
   575   544   545      1
   576   544   546      1
   577   544   553      1
   578   545   554      1
   579   545   555      1
   580   546   547      1
   581   546   556      1
   582   546   557      1
   583   547   548      1
   584   547   558      1
   585   548   559      1
   586   548   560      1
   587   548   564      1
   588   561   562      1
   589   561   566      1
   590   561   568      1
   591   561   569      1
   592   562   563      1
   593   562   570      1
   594   562   571      1
   595   563   564      1
   596   563   565      1
   597   563   572      1
   598   564   573      1
   599   564   574      1
   600   565   566      1
   601   565   575      1
   602   565   576      1
   603   566   567      1
   604   566   577      1
   605   567   578      1
   606   567   579      1
   607   567   583      1
   608   580   581      1
   609   580   585      1
   610   580   587      1
   611   580   588      1
   612   581   582      1
   613   581   589      1
   614   581   590      1
   615   582   583      1
   616   582   584      1
   617   582   591      1
   618   583   592      1
   619   583   593      1
   620   584   585      1
   621   584   594      1
   622   584   595      1
   623   585   586      1
   624   585   596      1
   625   586   597      1
   626   586   598      1
   627   586   602      1
   628   599   600      1
   629   599   604      1
   630   599   606      1
   631   599   607      1
   632   600   601      1
   633   600   608      1
   634   600   609      1
   635   601   602      1
   636   601   603      1
   637   601   610      1
   638   602   611      1
   639   602   612      1
   640   603   604      1
   641   603   613      1
   642   603   614      1
   643   604   605      1
   644   604   615      1
   645   605   616      1
   646   605   617      1
   647   605   621      1
   648   618   619      1
   649   618   623      1
   650   618   625      1
   651   618   626      1
   652   619   620      1
   653   619   627      1
   654   619   628      1
   655   620   621      1
   656   620   622      1
   657   620   629      1
   658   621   630      1
   659   621   631      1
   660   622   623      1
   661   622   632      1
   662   622   633      1
   663   623   624      1
   664   623   634      1
   665   624   635      1
   666   624   636      1
   667   624   640      1
   668   637   638      1
   669   637   642      1
   670   637   644      1
   671   637   645      1
   672   638   639      1
   673   638   646      1
   674   638   647      1
   675   639   640      1
   676   639   641      1
   677   639   648      1
   678   640   649      1
   679   640   650      1
   680   641   642      1
   681   641   651      1
   682   641   652      1
   683   642   643      1
   684   642   653      1
   685   643   654      1
   686   643   655      1
   687   643   659      1
   688   656   657      1
   689   656   661      1
   690   656   663      1
   691   656   664      1
   692   657   658      1
   693   657   665      1
   694   657   666      1
   695   658   659      1
   696   658   660      1
   697   658   667      1
   698   659   668      1
   699   659   669      1
   700   660   661      1
   701   660   670      1
   702   660   671      1
   703   661   662      1
   704   661   672      1
   705   662   673      1
   706   662   674      1
   707   662   675      1
   708   675   676      1
   709   675   677      1
   710   675   678      1
   711   676   679      1
   712   676   680      1
   713   676   684      1
   714   681   682      1
   715   681   686      1
   716   681   688      1
   717   681   689      1
   718   682   683      1
   719   682   690      1
   720   682   691      1
   721   683   684      1
   722   683   685      1
   723   683   692      1
   724   684   693      1
   725   684   694      1
   726   685   686      1
   727   685   695      1
   728   685   696      1
   729   686   687      1
   730   686   697      1
   731   687   698      1
   732   687   699      1
   733   687   703      1
   734   700   701      1
   735   700   705      1
   736   700   707      1
   737   700   708      1
   738   701   702      1
   739   701   709      1
   740   701   710      1
   741   702   703      1
   742   702   704      1
   743   702   711      1
   744   703   712      1
   745   703   713      1
   746   704   705      1
   747   704   714      1
   748   704   715      1
   749   705   706      1
   750   705   716      1
   751   706   717      1
   752   706   718      1
   753   706   722      1
   754   719   720      1
   755   719   724      1
   756   719   726      1
   757   719   727      1
   758   720   721      1
   759   720   728      1
   760   720   729      1
   761   721   722      1
   762   721   723      1
   763   721   730      1
   764   722   731      1
   765   722   732      1
   766   723   724      1
   767   723   733      1
   768   723   734      1
   769   724   725      1
   770   724   735      1
   771   725   736      1
   772   725   737      1
   773   725   741      1
   774   738   739      1
   775   738   743      1
   776   738   745      1
   777   738   746      1
   778   739   740      1
   779   739   747      1
   780   739   748      1
   781   740   741      1
   782   740   742      1
   783   740   749      1
   784   741   750      1
   785   741   751      1
   786   742   743      1
   787   742   752      1
   788   742   753      1
   789   743   744      1
   790   743   754      1
   791   744   755      1
   792   744   756      1
   793   744   760      1
   794   757   758      1
   795   757   762      1
   796   757   764      1
   797   757   765      1
   798   758   759      1
   799   758   766      1
   800   758   767      1
   801   759   760      1
   802   759   761      1
   803   759   768      1
   804   760   769      1
   805   760   770      1
   806   761   762      1
   807   761   771      1
   808   761   772      1
   809   762   763      1
   810   762   773      1
   811   763   774      1
   812   763   775      1
   813   763   779      1
   814   776   777      1
   815   776   781      1
   816   776   783      1
   817   776   784      1
   818   777   778      1
   819   777   785      1
   820   777   786      1
   821   778   779      1
   822   778   780      1
   823   778   787      1
   824   779   788      1
   825   779   789      1
   826   780   781      1
   827   780   790      1
   828   780   791      1
   829   781   782      1
   830   781   792      1
   831   782   793      1
   832   782   794      1
   833   782   795      1
   834   795   796      1
   835   795   797      1
   836   795   798      1
   837   796   799      1
   838   796   800      1
   839   796   804      1
   840   801   802      1
   841   801   806      1
   842   801   808      1
   843   801   809      1
   844   802   803      1
   845   802   810      1
   846   802   811      1
   847   803   804      1
   848   803   805      1
   849   803   812      1
   850   804   813      1
   851   804   814      1
   852   805   806      1
   853   805   815      1
   854   805   816      1
   855   806   807      1
   856   806   817      1
   857   807   818      1
   858   807   819      1
   859   807   823      1
   860   820   821      1
   861   820   825      1
   862   820   827      1
   863   820   828      1
   864   821   822      1
   865   821   829      1
   866   821   830      1
   867   822   823      1
   868   822   824      1
   869   822   831      1
   870   823   832      1
   871   823   833      1
   872   824   825      1
   873   824   834      1
   874   824   835      1
   875   825   826      1
   876   825   836      1
   877   826   837      1
   878   826   838      1
   879   826   839      1
   880   839   840      1
   881   839   841      1
   882   839   842      1
   883   840   843      1
   884   840   844      1
   885   840   848      1
   886   845   846      1
   887   845   850      1
   888   845   852      1
   889   845   853      1
   890   846   847      1
   891   846   854      1
   892   846   855      1
   893   847   848      1
   894   847   849      1
   895   847   856      1
   896   848   857      1
   897   848   858      1
   898   849   850      1
   899   849   859      1
   900   849   860      1
   901   850   851      1
   902   850   861      1
   903   851   862      1
   904   851   863      1
   905   851   867      1
   906   864   865      1
   907   864   869      1
   908   864   871      1
   909   864   872      1
   910   865   866      1
   911   865   873      1
   912   865   874      1
   913   866   867      1
   914   866   868      1
   915   866   875      1
   916   867   876      1
   917   867   877      1
   918   868   869      1
   919   868   878      1
   920   868   879      1
   921   869   870      1
   922   869   880      1
   923   870   881      1
   924   870   882      1
   925   870   883      1
   926   883   884      1
   927   883   885      1
   928   883   886      1
   929   884   887      1
   930   884   888      1
   931   884   892      1
   932   889   890      1
   933   889   894      1
   934   889   896      1
   935   889   897      1
   936   890   891      1
   937   890   898      1
   938   890   899      1
   939   891   892      1
   940   891   893      1
   941   891   900      1
   942   892   901      1
   943   892   902      1
   944   893   894      1
   945   893   903      1
   946   893   904      1
   947   894   895      1
   948   894   905      1
   949   895   906      1
   950   895   907      1
   951   895   908      1
   952   908   909      1
   953   908   910      1
   954   908   911      1
   955   909   912      1
   956   909   913      1
   957   909   917      1
   958   914   915      1
   959   914   919      1
   960   914   921      1
   961   914   922      1
   962   915   916      1
   963   915   923      1
   964   915   924      1
   965   916   917      1
   966   916   918      1
   967   916   925      1
   968   917   926      1
   969   917   927      1
   970   918   919      1
   971   918   928      1
   972   918   929      1
   973   919   920      1
   974   919   930      1
   975   920   931      1
   976   920   932      1
   977   920   936      1
   978   933   934      1
   979   933   938      1
   980   933   940      1
   981   933   941      1
   982   934   935      1
   983   934   942      1
   984   934   943      1
   985   935   936      1
   986   935   937      1
   987   935   944      1
   988   936   945      1
   989   936   946      1
   990   937   938      1
   991   937   947      1
   992   937   948      1
   993   938   939      1
   994   938   949      1
   995   939   950      1
   996   939   951      1
   997   939   955      1
   998   952   953      1
   999   952   957      1
  1000   952   959      1
  1001   952   960      1
  1002   953   954      1
  1003   953   961      1
  1004   953   962      1
  1005   954   955      1
  1006   954   956      1
  1007   954   963      1
  1008   955   964      1
  1009   955   965      1
  1010   956   957      1
  1011   956   966      1
  1012   956   967      1
  1013   957   958      1
  1014   957   968      1
  1015   958   969      1
  1016   958   970      1
  1017   958   971      1
  1018   971   972      1
  1019   971   973      1
  1020   971   974      1
  1021   972   975      1
  1022   972   976      1
  1023   972   980      1
  1024   977   978      1
  1025   977   982      1
  1026   977   984      1
  1027   977   985      1
  1028   978   979      1
  1029   978   986      1
  1030   978   987      1
  1031   979   980      1
  1032   979   981      1
  1033   979   988      1
  1034   980   989      1
  1035   980   990      1
  1036   981   982      1
  1037   981   991      1
  1038   981   992      1
  1039   982   983      1
  1040   982   993      1
  1041   983   994      1
  1042   983   995      1
  1043   983   999      1
  1044   996   997      1
  1045   996  1001      1
  1046   996  1003      1
  1047   996  1004      1
  1048   997   998      1
  1049   997  1005      1
  1050   997  1006      1
  1051   998   999      1
  1052   998  1000      1
  1053   998  1007      1
  1054   999  1008      1
  1055   999  1009      1
  1056  1000  1001      1
  1057  1000  1010      1
  1058  1000  1011      1
  1059  1001  1002      1
  1060  1001  1012      1
  1061  1002  1013      1
  1062  1002  1014      1
  1063  1002  1015      1
  1064  1015  1016      1
  1065  1015  1017      1
  1066  1015  1018      1
  1067  1016  1019      1
  1068  1016  1020      1
  1069  1016  1024      1
  1070  1021  1022      1
  1071  1021  1026      1
  1072  1021  1028      1
  1073  1021  1029      1
  1074  1022  1023      1
  1075  1022  1030      1
  1076  1022  1031      1
  1077  1023  1024      1
  1078  1023  1025      1
  1079  1023  1032      1
  1080  1024  1033      1
  1081  1024  1034      1
  1082  1025  1026      1
  1083  1025  1035      1
  1084  1025  1036      1
  1085  1026  1027      1
  1086  1026  1037      1
  1087  1027  1038      1
  1088  1027  1039      1
  1089  1027  1043      1
  1090  1040  1041      1
  1091  1040  1045      1
  1092  1040  1047      1
  1093  1040  1048      1
  1094  1041  1042      1
  1095  1041  1049      1
  1096  1041  1050      1
  1097  1042  1043      1
  1098  1042  1044      1
  1099  1042  1051      1
  1100  1043  1052      1
  1101  1043  1053      1
  1102  1044  1045      1
  1103  1044  1054      1
  1104  1044  1055      1
  1105  1045  1046      1
  1106  1045  1056      1
  1107  1046  1057      1
  1108  1046  1058      1
  1109  1046  1059      1
  1110  1059  1060      1
  1111  1059  1061      1
  1112  1059  1062      1
  1113  1060  1063      1
  1114  1060  1064      1
  1115  1060  1068      1
  1116  1065  1066      1
  1117  1065  1070      1
  1118  1065  1072      1
  1119  1065  1073      1
  1120  1066  1067      1
  1121  1066  1074      1
  1122  1066  1075      1
  1123  1067  1068      1
  1124  1067  1069      1
  1125  1067  1076      1
  1126  1068  1077      1
  1127  1068  1078      1
  1128  1069  1070      1
  1129  1069  1079      1
  1130  1069  1080      1
  1131  1070  1071      1
  1132  1070  1081      1
  1133  1071  1082      1
  1134  1071  1083      1
  1135  1071  1087      1
  1136  1084  1085      1
  1137  1084  1089      1
  1138  1084  1091      1
  1139  1084  1092      1
  1140  1085  1086      1
  1141  1085  1093      1
  1142  1085  1094      1
  1143  1086  1087      1
  1144  1086  1088      1
  1145  1086  1095      1
  1146  1087  1096      1
  1147  1087  1097      1
  1148  1088  1089      1
  1149  1088  1098      1
  1150  1088  1099      1
  1151  1089  1090      1
  1152  1089  1100      1
  1153  1090  1101      1
  1154  1090  1102      1
  1155  1090  1103      1
  1156  1103  1104      1
  1157  1103  1105      1
  1158  1103  1106      1
  1159  1104  1107      1
  1160  1104  1108      1
  1161  1104  1109      1
  1162  1109  1110      1
  1163  1109  1111      1
  1164  1109  1112      1
  1165  1110  1113      1
  1166  1110  1114      1
  1167  1110  1118      1
  1168  1115  1116      1
  1169  1115  1120      1
  1170  1115  1122      1
  1171  1115  1123      1
  1172  1116  1117      1
  1173  1116  1124      1
  1174  1116  1125      1
  1175  1117  1118      1
  1176  1117  1119      1
  1177  1117  1126      1
  1178  1118  1127      1
  1179  1118  1128      1
  1180  1119  1120      1
  1181  1119  1129      1
  1182  1119  1130      1
  1183  1120  1121      1
  1184  1120  1131      1
  1185  1121  1132      1
  1186  1121  1133      1
  1187  1121  1137      1
  1188  1134  1135      1
  1189  1134  1139      1
  1190  1134  1141      1
  1191  1134  1142      1
  1192  1135  1136      1
  1193  1135  1143      1
  1194  1135  1144      1
  1195  1136  1137      1
  1196  1136  1138      1
  1197  1136  1145      1
  1198  1137  1146      1
  1199  1137  1147      1
  1200  1138  1139      1
  1201  1138  1148      1
  1202  1138  1149      1
  1203  1139  1140      1
  1204  1139  1150      1
  1205  1140  1151      1
  1206  1140  1152      1
  1207  1140  1153      1
  1208  1153  1154      1
  1209  1153  1155      1
  1210  1153  1156      1
  1211  1154  1157      1
  1212  1154  1158      1
  1213  1154  1162      1
  1214  1159  1160      1
  1215  1159  1164      1
  1216  1159  1166      1
  1217  1159  1167      1
  1218  1160  1161      1
  1219  1160  1168      1
  1220  1160  1169      1
  1221  1161  1162      1
  1222  1161  1163      1
  1223  1161  1170      1
  1224  1162  1171      1
  1225  1162  1172      1
  1226  1163  1164      1
  1227  1163  1173      1
  1228  1163  1174      1
  1229  1164  1165      1
  1230  1164  1175      1
  1231  1165  1176      1
  1232  1165  1177      1
  1233  1165  1181      1
  1234  1178  1179      1
  1235  1178  1183      1
  1236  1178  1185      1
  1237  1178  1186      1
  1238  1179  1180      1
  1239  1179  1187      1
  1240  1179  1188      1
  1241  1180  1181      1
  1242  1180  1182      1
  1243  1180  1189      1
  1244  1181  1190      1
  1245  1181  1191      1
  1246  1182  1183      1
  1247  1182  1192      1
  1248  1182  1193      1
  1249  1183  1184      1
  1250  1183  1194      1
  1251  1184  1195      1
  1252  1184  1196      1
  1253  1184  1200      1
  1254  1197  1198      1
  1255  1197  1202      1
  1256  1197  1204      1
  1257  1197  1205      1
  1258  1198  1199      1
  1259  1198  1206      1
  1260  1198  1207      1
  1261  1199  1200      1
  1262  1199  1201      1
  1263  1199  1208      1
  1264  1200  1209      1
  1265  1200  1210      1
  1266  1201  1202      1
  1267  1201  1211      1
  1268  1201  1212      1
  1269  1202  1203      1
  1270  1202  1213      1
  1271  1203  1214      1
  1272  1203  1215      1
  1273  1203  1219      1
  1274  1216  1217      1
  1275  1216  1221      1
  1276  1216  1223      1
  1277  1216  1224      1
  1278  1217  1218      1
  1279  1217  1225      1
  1280  1217  1226      1
  1281  1218  1219      1
  1282  1218  1220      1
  1283  1218  1227      1
  1284  1219  1228      1
  1285  1219  1229      1
  1286  1220  1221      1
  1287  1220  1230      1
  1288  1220  1231      1
  1289  1221  1222      1
  1290  1221  1232      1
  1291  1222  1233      1
  1292  1222  1234      1
  1293  1222  1235      1
  1294  1235  1236      1
  1295  1235  1237      1
  1296  1235  1238      1
  1297  1236  1239      1
  1298  1236  1240      1
  1299  1236  1244      1
  1300  1241  1242      1
  1301  1241  1246      1
  1302  1241  1248      1
  1303  1241  1249      1
  1304  1242  1243      1
  1305  1242  1250      1
  1306  1242  1251      1
  1307  1243  1244      1
  1308  1243  1245      1
  1309  1243  1252      1
  1310  1244  1253      1
  1311  1244  1254      1
  1312  1245  1246      1
  1313  1245  1255      1
  1314  1245  1256      1
  1315  1246  1247      1
  1316  1246  1257      1
  1317  1247  1258      1
  1318  1247  1259      1
  1319  1247  1260      1
  1320  1260  1261      1
  1321  1260  1262      1
  1322  1260  1263      1
  1323  1261  1264      1
  1324  1261  1265      1
  1325  1261  1269      1
  1326  1266  1267      1
  1327  1266  1271      1
  1328  1266  1273      1
  1329  1266  1274      1
  1330  1267  1268      1
  1331  1267  1275      1
  1332  1267  1276      1
  1333  1268  1269      1
  1334  1268  1270      1
  1335  1268  1277      1
  1336  1269  1278      1
  1337  1269  1279      1
  1338  1270  1271      1
  1339  1270  1280      1
  1340  1270  1281      1
  1341  1271  1272      1
  1342  1271  1282      1
  1343  1272  1283      1
  1344  1272  1284      1
  1345  1272  1285      H
