###
### Created by PolyChef-cpp17 on Wed Feb 26 21:14:13 2025
###

@<TRIPOS>MOLECULE
NO_INFO
1305 1365 1 0 0
SMALL
USER_CHARGES


@<TRIPOS>ATOM
      1 C         151.1524  150.2334   44.9536 C.3       0        0    0.0000
      2 C         150.5643  149.3655   46.0574 C.3       0        0    0.0000
      3 C         150.6447  150.2758   47.2872 C.3       0        0    0.0000
      4 C         150.5022  149.5692   48.6387 C.3       0        0    0.0000
      5 C         151.9348  151.0979   47.1000 C.3       0        0    0.0000
      6 C         152.3627  150.8799   45.6355 C.3       0        0    0.0000
      7 C         152.9382  152.1092   44.9257 C.3       0        0    0.0000
      8 H         151.4404  149.6425   44.0786 H         0        0    0.0000
      9 H         150.4136  150.9766   44.6341 H         0        0    0.0000
     10 H         149.5360  149.0634   45.8358 H         0        0    0.0000
     11 H         151.1674  148.4586   46.1759 H         0        0    0.0000
     12 H         149.8055  150.9841   47.2151 H         0        0    0.0000
     13 H         151.0587  148.6249   48.6094 H         0        0    0.0000
     14 H         150.9685  150.1856   49.4164 H         0        0    0.0000
     15 H         152.7426  150.7806   47.7684 H         0        0    0.0000
     16 H         151.7360  152.1494   47.3334 H         0        0    0.0000
     17 H         153.1624  150.1241   45.6491 H         0        0    0.0000
     18 H         153.3438  151.8042   43.9537 H         0        0    0.0000
     19 H         152.1266  152.8172   44.7202 H         0        0    0.0000
     20 C         157.1223  151.5240   47.3418 C.3       1        0    0.0000
     21 C         156.1350  151.3896   46.1798 C.3       1        0    0.0000
     22 C         154.7778  151.9024   46.6939 C.3       1        0    0.0000
     23 C         154.0546  152.8460   45.7250 C.3       1        0    0.0000
     24 C         155.1055  152.5769   48.0298 C.3       1        0    0.0000
     25 C         156.2747  151.7640   48.5959 C.3       1        0    0.0000
     26 C         155.8107  150.4597   49.2717 C.3       1        0    0.0000
     27 H         157.7848  150.6564   47.4158 H         1        0    0.0000
     28 H         157.7588  152.4005   47.1648 H         1        0    0.0000
     29 H         156.5000  151.9488   45.3112 H         1        0    0.0000
     30 H         156.0452  150.3404   45.8750 H         1        0    0.0000
     31 H         154.1360  151.0336   46.8986 H         1        0    0.0000
     32 H         153.5946  153.6648   46.2911 H         1        0    0.0000
     33 H         154.7689  153.3023   45.0301 H         1        0    0.0000
     34 H         154.2402  152.6008   48.7002 H         1        0    0.0000
     35 H         155.4264  153.6137   47.8657 H         1        0    0.0000
     36 H         156.8298  152.3732   49.3205 H         1        0    0.0000
     37 H         156.5514  149.6625   49.1438 H         1        0    0.0000
     38 H         154.8848  150.1134   48.7971 H         1        0    0.0000
     39 C         155.5303  150.6633   50.7888 C.3       2        0    0.0000
     40 C         154.1453  151.2518   51.0938 C.3       2        0    0.0000
     41 H         155.5901  149.6729   51.2578 H         2        0    0.0000
     42 H         156.3280  151.2695   51.2339 H         2        0    0.0000
     43 H         153.3717  150.7989   50.4626 H         2        0    0.0000
     44 H         153.8899  151.0013   52.1314 H         2        0    0.0000
     45 C         157.6382  153.5359   51.7272 C.3       3        0    0.0000
     46 C         156.4346  152.6322   52.0060 C.3       3        0    0.0000
     47 C         155.1779  153.4958   51.7962 C.3       3        0    0.0000
     48 C         154.0765  152.8138   50.9751 C.3       3        0    0.0000
     49 C         155.6986  154.7720   51.1274 C.3       3        0    0.0000
     50 C         157.1001  154.9709   51.7146 C.3       3        0    0.0000
     51 C         157.0651  155.6167   53.1127 C.3       3        0    0.0000
     52 H         158.4453  153.3733   52.4479 H         3        0    0.0000
     53 H         158.0395  153.2935   50.7348 H         3        0    0.0000
     54 H         156.4636  151.7561   51.3488 H         3        0    0.0000
     55 H         156.4650  152.2640   53.0381 H         3        0    0.0000
     56 H         154.7770  153.7670   52.7834 H         3        0    0.0000
     57 H         153.0959  153.1473   51.3351 H         3        0    0.0000
     58 H         154.1456  153.1093   49.9219 H         3        0    0.0000
     59 H         155.0380  155.6268   51.3049 H         3        0    0.0000
     60 H         155.7737  154.6309   50.0414 H         3        0    0.0000
     61 H         157.6970  155.5960   51.0384 H         3        0    0.0000
     62 H         158.0552  155.5991   53.5817 H         3        0    0.0000
     63 H         156.3946  155.0418   53.7625 H         3        0    0.0000
     64 C         156.5471  157.0832   53.0587 C.3       4        0    0.0000
     65 C         156.8483  157.8982   54.3246 C.3       4        0    0.0000
     66 H         157.0534  157.5671   52.2137 H         4        0    0.0000
     67 H         155.4756  157.0882   52.8266 H         4        0    0.0000
     68 H         156.0328  157.8195   55.0531 H         4        0    0.0000
     69 H         157.7383  157.4688   54.8023 H         4        0    0.0000
     70 C         160.2589  159.3789   55.1520 C.3       5        0    0.0000
     71 C         158.9256  159.1090   55.8545 C.3       5        0    0.0000
     72 C         157.9024  160.0655   55.2323 C.3       5        0    0.0000
     73 C         157.1667  159.4086   54.0491 C.3       5        0    0.0000
     74 C         158.7769  161.2661   54.8490 C.3       5        0    0.0000
     75 C         160.0597  160.6405   54.2958 C.3       5        0    0.0000
     76 C         161.2415  161.6167   54.3187 C.3       5        0    0.0000
     77 H         161.0522  159.5005   55.8983 H         5        0    0.0000
     78 H         160.5384  158.5307   54.5166 H         5        0    0.0000
     79 H         159.0351  159.3402   56.9216 H         5        0    0.0000
     80 H         158.6317  158.0567   55.7835 H         5        0    0.0000
     81 H         157.1650  160.3644   55.9883 H         5        0    0.0000
     82 H         157.7977  159.4693   53.1541 H         5        0    0.0000
     83 H         156.2388  159.9405   53.8136 H         5        0    0.0000
     84 H         158.9984  161.8560   55.7481 H         5        0    0.0000
     85 H         158.3057  161.9375   54.1249 H         5        0    0.0000
     86 H         159.8741  160.3289   53.2582 H         5        0    0.0000
     87 H         161.1906  162.2972   53.4608 H         5        0    0.0000
     88 H         162.1788  161.0558   54.2246 H         5        0    0.0000
     89 C         159.9328  160.3806   58.4910 C.3       6        0    0.0000
     90 C         160.4267  160.5040   57.0472 C.3       6        0    0.0000
     91 C         160.2378  161.9743   56.6515 C.3       6        0    0.0000
     92 C         161.2839  162.4428   55.6362 C.3       6        0    0.0000
     93 C         160.2819  162.7055   57.9974 C.3       6        0    0.0000
     94 C         159.4659  161.7816   58.9075 C.3       6        0    0.0000
     95 C         159.6518  162.0354   60.4061 C.3       6        0    0.0000
     96 H         159.1174  159.6540   58.5743 H         6        0    0.0000
     97 H         160.7515  160.0247   59.1278 H         6        0    0.0000
     98 H         159.8696  159.8418   56.3757 H         6        0    0.0000
     99 H         161.4810  160.2067   56.9955 H         6        0    0.0000
    100 H         159.2310  162.0873   56.2237 H         6        0    0.0000
    101 H         162.2838  162.3466   56.0761 H         6        0    0.0000
    102 H         161.1409  163.5050   55.4056 H         6        0    0.0000
    103 H         159.8445  163.7069   57.9332 H         6        0    0.0000
    104 H         161.3135  162.8019   58.3586 H         6        0    0.0000
    105 H         158.4025  161.8805   58.6450 H         6        0    0.0000
    106 H         160.0008  161.1242   60.9057 H         6        0    0.0000
    107 H         158.6833  162.2898   60.8530 H         6        0    0.0000
    108 C         160.6465  163.1942   60.6902 C.3       7        0    0.0000
    109 C         160.0090  164.4084   61.3806 C.3       7        0    0.0000
    110 H         161.4203  162.7913   61.3562 H         7        0    0.0000
    111 H         161.1520  163.4833   59.7613 H         7        0    0.0000
    112 H         158.9476  164.5022   61.1227 H         7        0    0.0000
    113 H         160.0553  164.2466   62.4652 H         7        0    0.0000
    114 C         160.7443  165.7633   61.0934 C.3       8        0    0.0000
    115 C         161.6794  166.2173   62.2234 C.3       8        0    0.0000
    116 H         159.9652  166.5263   60.9690 H         8        0    0.0000
    117 H         161.2761  165.6995   60.1369 H         8        0    0.0000
    118 H         161.1448  166.9591   62.8304 H         8        0    0.0000
    119 H         161.9292  165.3858   62.8928 H         8        0    0.0000
    120 C         162.9960  166.9063   61.7226 C.3       9        0    0.0000
    121 C         163.7060  167.7474   62.7931 C.3       9        0    0.0000
    122 H         163.6767  166.1024   61.4144 H         9        0    0.0000
    123 H         162.7843  167.4991   60.8250 H         9        0    0.0000
    124 H         163.0135  168.4485   63.2736 H         9        0    0.0000
    125 H         164.0611  167.0687   63.5792 H         9        0    0.0000
    126 C         164.9615  168.5237   62.2642 C.3      10        0    0.0000
    127 C         165.7926  169.1921   63.3687 C.3      10        0    0.0000
    128 H         164.5891  169.3101   61.5953 H        10        0    0.0000
    129 H         165.5773  167.8559   61.6505 H        10        0    0.0000
    130 H         166.3300  170.0398   62.9246 H        10        0    0.0000
    131 H         165.1511  169.6054   64.1559 H        10        0    0.0000
    132 C         168.0197  169.3531   67.4607 C.3      11        0    0.0000
    133 C         167.4726  168.2822   66.5273 C.3      11        0    0.0000
    134 C         167.6780  168.9003   65.1405 C.3      11        0    0.0000
    135 C         166.8750  168.2544   64.0073 C.3      11        0    0.0000
    136 C         167.4560  170.4132   65.3335 C.3      11        0    0.0000
    137 C         167.4664  170.6480   66.8568 C.3      11        0    0.0000
    138 C         168.1528  171.9361   67.3217 C.3      11        0    0.0000
    139 H         167.6863  169.2053   68.4926 H        11        0    0.0000
    140 H         169.1150  169.3286   67.4503 H        11        0    0.0000
    141 H         168.0056  167.3328   66.6375 H        11        0    0.0000
    142 H         166.4139  168.1056   66.7471 H        11        0    0.0000
    143 H         168.7403  168.7669   64.8860 H        11        0    0.0000
    144 H         167.5654  167.9268   63.2209 H        11        0    0.0000
    145 H         166.3800  167.3529   64.3874 H        11        0    0.0000
    146 H         166.5047  170.7606   64.9162 H        11        0    0.0000
    147 H         168.2430  170.9682   64.8118 H        11        0    0.0000
    148 H         166.4147  170.7231   67.1721 H        11        0    0.0000
    149 H         167.8735  172.7541   66.6471 H        11        0    0.0000
    150 H         167.7754  172.2046   68.3155 H        11        0    0.0000
    151 C         171.0007  175.2990   66.5851 C.3      12        0    0.0000
    152 C         171.0915  173.7757   66.4627 C.3      12        0    0.0000
    153 C         170.3569  173.2012   67.6811 C.3      12        0    0.0000
    154 C         169.7072  171.8469   67.3838 C.3      12        0    0.0000
    155 C         169.3714  174.3148   68.0506 C.3      12        0    0.0000
    156 C         170.2151  175.5815   67.8724 C.3      12        0    0.0000
    157 C         169.4073  176.8795   67.7883 C.3      12        0    0.0000
    158 H         171.9947  175.7574   66.6230 H        12        0    0.0000
    159 H         170.4886  175.7060   65.7050 H        12        0    0.0000
    160 H         172.1330  173.4377   66.4366 H        12        0    0.0000
    161 H         170.6227  173.4563   65.5241 H        12        0    0.0000
    162 H         171.0840  173.0907   68.4988 H        12        0    0.0000
    163 H         169.9845  171.1324   68.1681 H        12        0    0.0000
    164 H         170.0875  171.4420   66.4386 H        12        0    0.0000
    165 H         169.0019  174.2103   69.0757 H        12        0    0.0000
    166 H         168.5096  174.3180   67.3716 H        12        0    0.0000
    167 H         170.9318  175.6454   68.7041 H        12        0    0.0000
    168 H         168.8268  177.0263   68.7067 H        12        0    0.0000
    169 H         168.6850  176.8038   66.9666 H        12        0    0.0000
    170 C         170.3077  178.1210   67.5417 C.3      13        0    0.0000
    171 C         170.0183  179.2985   68.4835 C.3      13        0    0.0000
    172 H         171.3437  177.7990   67.7077 H        13        0    0.0000
    173 H         170.2385  178.4246   66.4905 H        13        0    0.0000
    174 H         169.2559  179.9660   68.0650 H        13        0    0.0000
    175 H         169.6039  178.8947   69.4162 H        13        0    0.0000
    176 C         174.0174  178.5958   66.9561 C.3      14        0    0.0000
    177 C         172.5101  178.8277   67.0491 C.3      14        0    0.0000
    178 C         172.3152  180.1907   67.7356 C.3      14        0    0.0000
    179 C         171.2896  180.1285   68.8752 C.3      14        0    0.0000
    180 C         173.7244  180.6080   68.1837 C.3      14        0    0.0000
    181 C         174.6696  179.9657   67.1604 C.3      14        0    0.0000
    182 C         174.7895  180.7436   65.8373 C.3      14        0    0.0000
    183 H         174.3240  177.9249   67.7688 H        14        0    0.0000
    184 H         174.3026  178.1149   66.0151 H        14        0    0.0000
    185 H         172.0298  178.0051   67.5902 H        14        0    0.0000
    186 H         172.0683  178.8548   66.0461 H        14        0    0.0000
    187 H         171.9635  180.9033   66.9762 H        14        0    0.0000
    188 H         170.9921  181.1398   69.1755 H        14        0    0.0000
    189 H         171.7517  179.6608   69.7529 H        14        0    0.0000
    190 H         173.8308  181.6956   68.2434 H        14        0    0.0000
    191 H         173.9435  180.2013   69.1795 H        14        0    0.0000
    192 H         175.6686  179.8380   67.5965 H        14        0    0.0000
    193 H         173.8068  180.9078   65.3823 H        14        0    0.0000
    194 H         175.3709  180.1501   65.1212 H        14        0    0.0000
    195 C         175.5091  182.1091   66.0258 C.3      15        0    0.0000
    196 C         176.4093  182.5077   64.8477 C.3      15        0    0.0000
    197 H         174.7242  182.8695   66.1270 H        15        0    0.0000
    198 H         176.0660  182.1059   66.9701 H        15        0    0.0000
    199 H         177.0268  181.6653   64.5146 H        15        0    0.0000
    200 H         175.7639  182.7773   64.0019 H        15        0    0.0000
    201 C         174.1470  185.5926   65.1790 C.3      16        0    0.0000
    202 C         175.0666  184.6372   65.9380 C.3      16        0    0.0000
    203 C         176.5062  184.9901   65.5258 C.3      16        0    0.0000
    204 C         177.3215  183.7504   65.1349 C.3      16        0    0.0000
    205 C         176.3483  186.0177   64.3945 C.3      16        0    0.0000
    206 C         175.0344  186.7462   64.7045 C.3      16        0    0.0000
    207 C         175.1604  187.8465   65.7741 C.3      16        0    0.0000
    208 H         173.7358  185.0704   64.3056 H        16        0    0.0000
    209 H         173.2990  185.9193   65.7891 H        16        0    0.0000
    210 H         174.8026  183.5971   65.7175 H        16        0    0.0000
    211 H         174.9490  184.7769   67.0191 H        16        0    0.0000
    212 H         176.9907  185.4821   66.3810 H        16        0    0.0000
    213 H         178.0425  183.5046   65.9232 H        16        0    0.0000
    214 H         177.9029  183.9695   64.2313 H        16        0    0.0000
    215 H         177.2082  186.6916   64.3292 H        16        0    0.0000
    216 H         176.2563  185.5078   63.4268 H        16        0    0.0000
    217 H         174.6171  187.1802   63.7869 H        16        0    0.0000
    218 H         176.1859  188.2263   65.8346 H        16        0    0.0000
    219 H         174.9251  187.4221   66.7577 H        16        0    0.0000
    220 C         170.4347  188.6118   65.5552 C.3      17        0    0.0000
    221 C         171.8201  188.3076   66.1312 C.3      17        0    0.0000
    222 C         172.8224  188.5553   64.9962 C.3      17        0    0.0000
    223 C         174.1835  189.0280   65.5144 C.3      17        0    0.0000
    224 C         172.0939  189.5644   64.1024 C.3      17        0    0.0000
    225 C         170.6576  189.0306   64.0960 C.3      17        0    0.0000
    226 C         169.6065  190.0330   63.6112 C.3      17        0    0.0000
    227 H         169.7752  187.7395   65.6171 H        17        0    0.0000
    228 H         169.9662  189.4152   66.1362 H        17        0    0.0000
    229 H         171.8849  187.2762   66.4943 H        17        0    0.0000
    230 H         172.0123  188.9659   66.9870 H        17        0    0.0000
    231 H         172.9456  187.6163   64.4370 H        17        0    0.0000
    232 H         174.0426  189.5768   66.4533 H        17        0    0.0000
    233 H         174.6384  189.7283   64.8042 H        17        0    0.0000
    234 H         172.5208  189.6015   63.0952 H        17        0    0.0000
    235 H         172.1363  190.5728   64.5327 H        17        0    0.0000
    236 H         170.6222  188.1265   63.4709 H        17        0    0.0000
    237 H         168.7131  189.9834   64.2445 H        17        0    0.0000
    238 H         169.2900  189.7632   62.5965 H        17        0    0.0000
    239 C         173.8105  192.0330   63.3888 C.3      18        0    0.0000
    240 C         172.6696  191.0131   63.3561 C.3      18        0    0.0000
    241 C         171.5376  191.5912   64.2241 C.3      18        0    0.0000
    242 C         170.1449  191.4899   63.5897 C.3      18        0    0.0000
    243 C         171.9569  193.0420   64.4822 C.3      18        0    0.0000
    244 C         173.4878  192.9973   64.5354 C.3      18        0    0.0000
    245 C         174.0144  192.5134   65.8998 C.3      18        0    0.0000
    246 H         174.7873  191.5487   63.4808 H        18        0    0.0000
    247 H         173.8149  192.5885   62.4421 H        18        0    0.0000
    248 H         172.3609  190.8291   62.3212 H        18        0    0.0000
    249 H         173.0031  190.0543   63.7699 H        18        0    0.0000
    250 H         171.5355  191.0601   65.1867 H        18        0    0.0000
    251 H         169.4460  192.1274   64.1443 H        18        0    0.0000
    252 H         170.1655  191.8626   62.5592 H        18        0    0.0000
    253 H         171.5110  193.4408   65.3992 H        18        0    0.0000
    254 H         171.6384  193.6852   63.6517 H        18        0    0.0000
    255 H         173.8927  193.9944   64.3204 H        18        0    0.0000
    256 H         175.1067  192.5829   65.9497 H        18        0    0.0000
    257 H         173.7559  191.4565   66.0356 H        18        0    0.0000
    258 C         172.3002  195.7878   64.5313 C.3      19        0    0.0000
    259 C         173.1674  195.5291   65.7658 C.3      19        0    0.0000
    260 C         172.4603  194.4292   66.5777 C.3      19        0    0.0000
    261 C         173.3930  193.3190   67.0774 C.3      19        0    0.0000
    262 C         171.3737  193.8988   65.6370 C.3      19        0    0.0000
    263 C         170.9504  195.1178   64.8104 C.3      19        0    0.0000
    264 C         169.9673  196.0294   65.5690 C.3      19        0    0.0000
    265 H         172.2246  196.8552   64.3031 H        19        0    0.0000
    266 H         172.7684  195.3058   63.6635 H        19        0    0.0000
    267 H         174.1809  195.2472   65.4595 H        19        0    0.0000
    268 H         173.2532  196.4402   66.3694 H        19        0    0.0000
    269 H         171.9657  194.9003   67.4392 H        19        0    0.0000
    270 H         174.2068  193.7642   67.6622 H        19        0    0.0000
    271 H         172.8546  192.6396   67.7483 H        19        0    0.0000
    272 H         170.5409  193.4471   66.1857 H        19        0    0.0000
    273 H         171.7870  193.1306   64.9706 H        19        0    0.0000
    274 H         170.4892  194.7840   63.8722 H        19        0    0.0000
    275 H         170.2936  196.1898   66.6026 H        19        0    0.0000
    276 H         168.9848  195.5451   65.6166 H        19        0    0.0000
    277 C         169.7949  197.4061   64.8641 C.3      20        0    0.0000
    278 C         168.5905  198.2165   65.3641 C.3      20        0    0.0000
    279 H         170.7043  197.9845   65.0718 H        20        0    0.0000
    280 H         169.7560  197.2627   63.7779 H        20        0    0.0000
    281 H         167.6737  197.6154   65.3547 H        20        0    0.0000
    282 H         168.7753  198.4904   66.4107 H        20        0    0.0000
    283 C         164.8338  200.5889   64.7032 C.3      21        0    0.0000
    284 C         165.8955  199.6443   65.2645 C.3      21        0    0.0000
    285 C         167.2344  200.3997   65.2036 C.3      21        0    0.0000
    286 C         168.3533  199.5542   64.5812 C.3      21        0    0.0000
    287 C         166.9207  201.6899   64.4304 C.3      21        0    0.0000
    288 C         165.4496  201.9899   64.7446 C.3      21        0    0.0000
    289 C         165.2220  202.6732   66.1054 C.3      21        0    0.0000
    290 H         164.6303  200.3145   63.6602 H        21        0    0.0000
    291 H         163.8872  200.5142   65.2477 H        21        0    0.0000
    292 H         165.9091  198.7060   64.6991 H        21        0    0.0000
    293 H         165.6640  199.3897   66.3055 H        21        0    0.0000
    294 H         167.5174  200.6673   66.2315 H        21        0    0.0000
    295 H         169.2864  200.1281   64.5401 H        21        0    0.0000
    296 H         168.0877  199.3074   63.5462 H        21        0    0.0000
    297 H         167.5942  202.5073   64.7056 H        21        0    0.0000
    298 H         167.0303  201.5231   63.3508 H        21        0    0.0000
    299 H         165.0121  202.6094   63.9513 H        21        0    0.0000
    300 H         166.0871  203.2789   66.3956 H        21        0    0.0000
    301 H         165.1035  201.9053   66.8794 H        21        0    0.0000
    302 C         162.2814  203.1915   62.8557 C.3      22        0    0.0000
    303 C         163.3060  202.6066   63.8267 C.3      22        0    0.0000
    304 C         162.8243  202.9632   65.2437 C.3      22        0    0.0000
    305 C         163.9438  203.5588   66.1076 C.3      22        0    0.0000
    306 C         161.6323  203.9077   65.0254 C.3      22        0    0.0000
    307 C         161.0259  203.4737   63.6849 C.3      22        0    0.0000
    308 C         160.1129  202.2374   63.7764 C.3      22        0    0.0000
    309 H         162.6705  204.1369   62.4563 H        22        0    0.0000
    310 H         162.0992  202.5308   62.0024 H        22        0    0.0000
    311 H         164.3064  202.9948   63.6060 H        22        0    0.0000
    312 H         163.3523  201.5167   63.7175 H        22        0    0.0000
    313 H         162.4587  202.0412   65.7174 H        22        0    0.0000
    314 H         163.5955  203.7014   67.1371 H        22        0    0.0000
    315 H         164.2092  204.5508   65.7229 H        22        0    0.0000
    316 H         160.9183  203.8656   65.8537 H        22        0    0.0000
    317 H         161.9791  204.9460   64.9430 H        22        0    0.0000
    318 H         160.4659  204.3043   63.2365 H        22        0    0.0000
    319 H         160.6962  201.3229   63.9277 H        22        0    0.0000
    320 H         159.5769  202.1136   62.8276 H        22        0    0.0000
    321 C         160.6598  205.6732   65.4738 C.3      23        0    0.0000
    322 C         160.5954  204.2007   65.8864 C.3      23        0    0.0000
    323 C         159.1544  203.7309   65.6178 C.3      23        0    0.0000
    324 C         159.0574  202.3737   64.9102 C.3      23        0    0.0000
    325 C         158.5305  204.8633   64.7958 C.3      23        0    0.0000
    326 C         159.2072  206.1359   65.3163 C.3      23        0    0.0000
    327 C         158.5848  206.6354   66.6339 C.3      23        0    0.0000
    328 H         161.2389  206.2705   66.1845 H        23        0    0.0000
    329 H         161.1677  205.7463   64.5035 H        23        0    0.0000
    330 H         161.3420  203.6227   65.3307 H        23        0    0.0000
    331 H         160.8295  204.0925   66.9519 H        23        0    0.0000
    332 H         158.6248  203.6755   66.5796 H        23        0    0.0000
    333 H         159.2241  201.5715   65.6390 H        23        0    0.0000
    334 H         158.0516  202.2266   64.5003 H        23        0    0.0000
    335 H         157.4406  204.8900   64.8956 H        23        0    0.0000
    336 H         158.7628  204.7350   63.7306 H        23        0    0.0000
    337 H         159.1387  206.9258   64.5575 H        23        0    0.0000
    338 H         159.1153  206.2281   67.5017 H        23        0    0.0000
    339 H         157.5476  206.2861   66.7019 H        23        0    0.0000
    340 C         161.7553  210.2514   66.3994 C.3      24        0    0.0000
    341 C         160.8839  209.2762   67.1786 C.3      24        0    0.0000
    342 C         159.8338  208.8554   66.1452 C.3      24        0    0.0000
    343 C         158.5786  208.1894   66.7171 C.3      24        0    0.0000
    344 C         159.5869  210.1094   65.2839 C.3      24        0    0.0000
    345 C         160.7280  211.0865   65.6282 C.3      24        0    0.0000
    346 C         161.2859  211.8915   64.4505 C.3      24        0    0.0000
    347 H         162.3723  210.8670   67.0612 H        24        0    0.0000
    348 H         162.4226  209.6977   65.7298 H        24        0    0.0000
    349 H         161.4585  208.4229   67.5519 H        24        0    0.0000
    350 H         160.4351  209.7863   68.0380 H        24        0    0.0000
    351 H         160.3114  208.1112   65.4901 H        24        0    0.0000
    352 H         158.4627  208.4855   67.7665 H        24        0    0.0000
    353 H         157.6979  208.5671   66.1842 H        24        0    0.0000
    354 H         158.6224  210.5853   65.4915 H        24        0    0.0000
    355 H         159.5714  209.8290   64.2252 H        24        0    0.0000
    356 H         160.3139  211.8181   66.3384 H        24        0    0.0000
    357 H         161.8483  212.7494   64.8377 H        24        0    0.0000
    358 H         162.0004  211.2699   63.8980 H        24        0    0.0000
    359 C         157.3561  211.3118   65.6791 C.3      25        0    0.0000
    360 C         158.7514  211.1277   65.1022 C.3      25        0    0.0000
    361 C         158.7781  212.1274   63.9442 C.3      25        0    0.0000
    362 C         160.2019  212.4101   63.4585 C.3      25        0    0.0000
    363 C         158.0326  213.3537   64.5021 C.3      25        0    0.0000
    364 C         157.1589  212.8329   65.6619 C.3      25        0    0.0000
    365 C         155.6992  213.3042   65.6492 C.3      25        0    0.0000
    366 H         157.2746  210.9005   66.6901 H        25        0    0.0000
    367 H         156.6272  210.7935   65.0469 H        25        0    0.0000
    368 H         159.5094  211.3743   65.8556 H        25        0    0.0000
    369 H         158.9235  210.1005   64.7663 H        25        0    0.0000
    370 H         158.1843  211.7120   63.1170 H        25        0    0.0000
    371 H         160.3639  211.9529   62.4752 H        25        0    0.0000
    372 H         160.3323  213.4910   63.3283 H        25        0    0.0000
    373 H         158.7346  214.1013   64.8920 H        25        0    0.0000
    374 H         157.4522  213.8447   63.7140 H        25        0    0.0000
    375 H         157.6027  213.2249   66.5892 H        25        0    0.0000
    376 H         155.1009  212.6011   65.0579 H        25        0    0.0000
    377 H         155.6425  214.2724   65.1376 H        25        0    0.0000
    378 C         151.4369  214.2497   66.9350 C.3      26        0    0.0000
    379 C         152.7231  214.0356   66.1332 C.3      26        0    0.0000
    380 C         153.8883  214.4397   67.0543 C.3      26        0    0.0000
    381 C         155.0583  213.4481   67.0595 C.3      26        0    0.0000
    382 C         153.2467  214.5925   68.4371 C.3      26        0    0.0000
    383 C         151.8283  215.0967   68.1508 C.3      26        0    0.0000
    384 C         151.7883  216.6112   67.8716 C.3      26        0    0.0000
    385 H         150.6451  214.6935   66.3240 H        26        0    0.0000
    386 H         151.0690  213.2747   67.2794 H        26        0    0.0000
    387 H         152.7869  212.9945   65.7980 H        26        0    0.0000
    388 H         152.7225  214.6653   65.2359 H        26        0    0.0000
    389 H         154.2529  215.4269   66.7363 H        26        0    0.0000
    390 H         155.8280  213.7984   67.7575 H        26        0    0.0000
    391 H         154.7270  212.4668   67.4183 H        26        0    0.0000
    392 H         153.8169  215.2698   69.0812 H        26        0    0.0000
    393 H         153.1940  213.6198   68.9433 H        26        0    0.0000
    394 H         151.1764  214.8651   69.0027 H        26        0    0.0000
    395 H         150.9405  216.8730   67.2290 H        26        0    0.0000
    396 H         152.6979  216.9065   67.3351 H        26        0    0.0000
    397 C         151.7119  217.4391   69.1872 C.3      27        0    0.0000
    398 C         153.0819  217.8428   69.7507 C.3      27        0    0.0000
    399 H         151.1567  218.3563   68.9525 H        27        0    0.0000
    400 H         151.1188  216.8955   69.9319 H        27        0    0.0000
    401 H         153.8061  218.0234   68.9476 H        27        0    0.0000
    402 H         152.9632  218.7937   70.2857 H        27        0    0.0000
    403 C         153.3991  213.0591   71.1682 C.3      28        0    0.0000
    404 C         154.2266  214.2850   70.8136 C.3      28        0    0.0000
    405 C         153.1730  215.3790   70.5990 C.3      28        0    0.0000
    406 C         153.6760  216.8171   70.7771 C.3      28        0    0.0000
    407 C         151.9739  214.9827   71.4848 C.3      28        0    0.0000
    408 C         152.3364  213.6245   72.1128 C.3      28        0    0.0000
    409 C         151.1559  212.6668   72.2927 C.3      28        0    0.0000
    410 H         152.9416  212.6357   70.2657 H        28        0    0.0000
    411 H         154.0034  212.2805   71.6437 H        28        0    0.0000
    412 H         154.9046  214.5210   71.6410 H        28        0    0.0000
    413 H         154.8351  214.1222   69.9185 H        28        0    0.0000
    414 H         152.8329  215.2971   69.5558 H        28        0    0.0000
    415 H         153.4337  217.1556   71.7916 H        28        0    0.0000
    416 H         154.7694  216.8268   70.6957 H        28        0    0.0000
    417 H         151.0775  214.9030   70.8571 H        28        0    0.0000
    418 H         151.7516  215.7211   72.2623 H        28        0    0.0000
    419 H         152.8079  213.8126   73.0884 H        28        0    0.0000
    420 H         151.0714  212.0032   71.4240 H        28        0    0.0000
    421 H         151.3396  212.0248   73.1624 H        28        0    0.0000
    422 C         150.5543  216.6203   74.3983 C.3      29        0    0.0000
    423 C         150.9337  215.2012   73.9985 C.3      29        0    0.0000
    424 C         149.9583  214.8955   72.8570 C.3      29        0    0.0000
    425 C         149.8083  213.4137   72.4996 C.3      29        0    0.0000
    426 C         148.6530  215.6239   73.2327 C.3      29        0    0.0000
    427 C         149.0227  216.5821   74.3818 C.3      29        0    0.0000
    428 C         148.3313  217.9485   74.3505 C.3      29        0    0.0000
    429 H         150.9485  216.8866   75.3839 H        29        0    0.0000
    430 H         150.9567  217.3306   73.6677 H        29        0    0.0000
    431 H         151.9775  215.1323   73.6770 H        29        0    0.0000
    432 H         150.7949  214.5271   74.8509 H        29        0    0.0000
    433 H         150.3517  215.3953   71.9589 H        29        0    0.0000
    434 H         149.2443  212.9093   73.2931 H        29        0    0.0000
    435 H         149.2121  213.3244   71.5838 H        29        0    0.0000
    436 H         147.8646  214.9402   73.5655 H        29        0    0.0000
    437 H         148.2588  216.1453   72.3538 H        29        0    0.0000
    438 H         148.7059  216.0929   75.3153 H        29        0    0.0000
    439 H         148.4508  218.4327   75.3270 H        29        0    0.0000
    440 H         148.8360  218.5889   73.6175 H        29        0    0.0000
    441 C         146.7637  214.1179   73.9529 C.3      30        0    0.0000
    442 C         147.4523  215.4508   73.7018 C.3      30        0    0.0000
    443 C         146.3063  216.4570   73.8251 C.3      30        0    0.0000
    444 C         146.8134  217.8903   74.0031 C.3      30        0    0.0000
    445 C         145.4714  215.9187   75.0014 C.3      30        0    0.0000
    446 C         145.8139  214.4192   75.1191 C.3      30        0    0.0000
    447 C         144.6099  213.4768   75.2436 C.3      30        0    0.0000
    448 H         147.4799  213.3288   74.2024 H        30        0    0.0000
    449 H         146.2251  213.8084   73.0507 H        30        0    0.0000
    450 H         148.2207  215.6307   74.4635 H        30        0    0.0000
    451 H         147.9300  215.4861   72.7180 H        30        0    0.0000
    452 H         145.6942  216.3953   72.9135 H        30        0    0.0000
    453 H         146.6286  218.4727   73.0927 H        30        0    0.0000
    454 H         146.2492  218.3769   74.8077 H        30        0    0.0000
    455 H         145.7383  216.4203   75.9399 H        30        0    0.0000
    456 H         144.4050  216.1039   74.8353 H        30        0    0.0000
    457 H         146.3956  214.3021   76.0456 H        30        0    0.0000
    458 H         144.2067  213.2767   74.2438 H        30        0    0.0000
    459 H         143.8173  213.9847   75.8060 H        30        0    0.0000
    460 C         141.7697  210.3898   77.1244 C.3      31        0    0.0000
    461 C         142.4509  211.3962   76.2097 C.3      31        0    0.0000
    462 C         143.8162  211.6169   76.8731 C.3      31        0    0.0000
    463 C         144.9241  212.1215   75.9399 C.3      31        0    0.0000
    464 C         144.1304  210.3078   77.6262 C.3      31        0    0.0000
    465 C         142.8952  209.4057   77.4497 C.3      31        0    0.0000
    466 C         142.5640  208.5298   78.6605 C.3      31        0    0.0000
    467 H         141.4044  210.8873   78.0312 H        31        0    0.0000
    468 H         140.9210  209.9012   76.6361 H        31        0    0.0000
    469 H         142.5438  210.9725   75.2040 H        31        0    0.0000
    470 H         141.8802  212.3268   76.1293 H        31        0    0.0000
    471 H         143.6791  212.3943   77.6395 H        31        0    0.0000
    472 H         145.8517  212.2291   76.5147 H        31        0    0.0000
    473 H         145.1173  211.3642   75.1709 H        31        0    0.0000
    474 H         144.3056  210.5382   78.6845 H        31        0    0.0000
    475 H         145.0314  209.8060   77.2579 H        31        0    0.0000
    476 H         143.0596  208.7674   76.5694 H        31        0    0.0000
    477 H         142.9848  208.9699   79.5723 H        31        0    0.0000
    478 H         141.4766  208.4992   78.7988 H        31        0    0.0000
    479 C         143.0884  207.0746   78.5051 C.3      32        0    0.0000
    480 C         142.6363  206.1257   79.6243 C.3      32        0    0.0000
    481 H         142.6911  206.6945   77.5553 H        32        0    0.0000
    482 H         144.1802  207.0840   78.4069 H        32        0    0.0000
    483 H         142.9872  206.4692   80.6045 H        32        0    0.0000
    484 H         141.5394  206.1406   79.6609 H        32        0    0.0000
    485 C         143.7336  202.8373   82.5344 C.3      33        0    0.0000
    486 C         143.1962  204.1198   81.9012 C.3      33        0    0.0000
    487 C         142.5896  203.7212   80.5447 C.3      33        0    0.0000
    488 C         143.0616  204.6326   79.4043 C.3      33        0    0.0000
    489 C         142.9715  202.2439   80.3644 C.3      33        0    0.0000
    490 C         143.0588  201.6827   81.7894 C.3      33        0    0.0000
    491 C         141.6967  201.3220   82.4098 C.3      33        0    0.0000
    492 H         144.8178  202.7881   82.3709 H        33        0    0.0000
    493 H         143.5685  202.8119   83.6162 H        33        0    0.0000
    494 H         143.9949  204.8640   81.8090 H        33        0    0.0000
    495 H         142.4185  204.5592   82.5369 H        33        0    0.0000
    496 H         141.4960  203.7925   80.6306 H        33        0    0.0000
    497 H         142.6709  204.2753   78.4445 H        33        0    0.0000
    498 H         144.1553  204.5905   79.3362 H        33        0    0.0000
    499 H         142.2541  201.7084   79.7350 H        33        0    0.0000
    500 H         143.9556  202.1607   79.8850 H        33        0    0.0000
    501 H         143.7101  200.7996   81.8088 H        33        0    0.0000
    502 H         140.8927  201.9337   81.9865 H        33        0    0.0000
    503 H         141.7213  201.5376   83.4849 H        33        0    0.0000
    504 C         137.6567  199.7791   82.9843 C.3      34        0    0.0000
    505 C         138.9485  200.5123   82.6570 C.3      34        0    0.0000
    506 C         140.0164  199.4378   82.8717 C.3      34        0    0.0000
    507 C         141.3533  199.8162   82.2295 C.3      34        0    0.0000
    508 C         139.3690  198.1604   82.3062 C.3      34        0    0.0000
    509 C         137.8464  198.4070   82.3252 C.3      34        0    0.0000
    510 C         137.0032  197.2722   82.9203 C.3      34        0    0.0000
    511 H         136.7791  200.3030   82.5926 H        34        0    0.0000
    512 H         137.5441  199.7033   84.0712 H        34        0    0.0000
    513 H         138.9366  200.8561   81.6155 H        34        0    0.0000
    514 H         139.1009  201.3822   83.3033 H        34        0    0.0000
    515 H         140.1551  199.3017   83.9542 H        34        0    0.0000
    516 H         142.1617  199.2082   82.6527 H        34        0    0.0000
    517 H         141.3172  199.5893   81.1573 H        34        0    0.0000
    518 H         139.6881  197.9780   81.2725 H        34        0    0.0000
    519 H         139.6695  197.2838   82.8898 H        34        0    0.0000
    520 H         137.5321  198.5086   81.2757 H        34        0    0.0000
    521 H         137.6052  196.7269   83.6568 H        34        0    0.0000
    522 H         136.7565  196.5580   82.1257 H        34        0    0.0000
    523 C         134.2365  195.2802   86.0642 C.3      35        0    0.0000
    524 C         135.4181  195.8306   85.2613 C.3      35        0    0.0000
    525 C         134.8154  196.5643   84.0561 C.3      35        0    0.0000
    526 C         135.6826  197.7397   83.5969 C.3      35        0    0.0000
    527 C         133.4185  196.9558   84.5496 C.3      35        0    0.0000
    528 C         132.9691  195.7040   85.3105 C.3      35        0    0.0000
    529 C         131.7789  195.9210   86.2491 C.3      35        0    0.0000
    530 H         134.2907  194.1903   86.1598 H        35        0    0.0000
    531 H         134.2586  195.6967   87.0783 H        35        0    0.0000
    532 H         136.0900  195.0287   84.9371 H        35        0    0.0000
    533 H         136.0037  196.5097   85.8926 H        35        0    0.0000
    534 H         134.7072  195.8416   83.2341 H        35        0    0.0000
    535 H         135.9361  198.3625   84.4631 H        35        0    0.0000
    536 H         135.1226  198.3770   82.9026 H        35        0    0.0000
    537 H         132.7443  197.1949   83.7211 H        35        0    0.0000
    538 H         133.4671  197.8251   85.2172 H        35        0    0.0000
    539 H         132.7256  194.9183   84.5805 H        35        0    0.0000
    540 H         132.1253  196.2775   87.2262 H        35        0    0.0000
    541 H         131.2755  194.9624   86.4228 H        35        0    0.0000
    542 C         127.3304  196.2661   87.2043 C.3      36        0    0.0000
    543 C         128.6976  195.7681   86.7569 C.3      36        0    0.0000
    544 C         129.4695  197.0677   86.5064 C.3      36        0    0.0000
    545 C         130.7444  196.9243   85.6696 C.3      36        0    0.0000
    546 C         128.4250  198.0613   85.9611 C.3      36        0    0.0000
    547 C         127.0513  197.4174   86.2326 C.3      36        0    0.0000
    548 C         125.9419  198.3835   86.6592 C.3      36        0    0.0000
    549 H         126.5694  195.4821   87.1424 H        36        0    0.0000
    550 H         127.3831  196.6078   88.2439 H        36        0    0.0000
    551 H         129.1760  195.1463   87.5199 H        36        0    0.0000
    552 H         128.5931  195.1686   85.8459 H        36        0    0.0000
    553 H         129.7829  197.4473   87.4906 H        36        0    0.0000
    554 H         130.4735  196.6049   84.6562 H        36        0    0.0000
    555 H         131.2222  197.9065   85.5731 H        36        0    0.0000
    556 H         128.5356  198.2488   84.8876 H        36        0    0.0000
    557 H         128.5469  199.0299   86.4579 H        36        0    0.0000
    558 H         126.7228  196.9630   85.2856 H        36        0    0.0000
    559 H         126.3765  199.3760   86.8272 H        36        0    0.0000
    560 H         125.2233  198.4893   85.8379 H        36        0    0.0000
    561 C         123.2388  194.8542   87.2751 C.3      37        0    0.0000
    562 C         124.0608  195.9977   86.6756 C.3      37        0    0.0000
    563 C         123.8736  197.2093   87.6063 C.3      37        0    0.0000
    564 C         125.1738  197.9495   87.9436 C.3      37        0    0.0000
    565 C         123.1905  196.6331   88.8507 C.3      37        0    0.0000
    566 C         122.3152  195.4938   88.3176 C.3      37        0    0.0000
    567 C         120.9889  196.0016   87.7210 C.3      37        0    0.0000
    568 H         122.7086  194.2861   86.5048 H        37        0    0.0000
    569 H         123.9198  194.1557   87.7782 H        37        0    0.0000
    570 H         125.1089  195.6945   86.5773 H        37        0    0.0000
    571 H         123.6985  196.2415   85.6700 H        37        0    0.0000
    572 H         123.1742  197.9084   87.1259 H        37        0    0.0000
    573 H         124.9395  198.8468   88.5288 H        37        0    0.0000
    574 H         125.8202  197.3226   88.5685 H        37        0    0.0000
    575 H         122.6169  197.3923   89.3922 H        37        0    0.0000
    576 H         123.9387  196.2263   89.5433 H        37        0    0.0000
    577 H         122.1034  194.7831   89.1266 H        37        0    0.0000
    578 H         120.5376  195.2506   87.0632 H        37        0    0.0000
    579 H         121.1824  196.8886   87.1061 H        37        0    0.0000
    580 C         121.3610  198.1075   91.9087 C.3      38        0    0.0000
    581 C         121.3900  197.8834   90.4046 C.3      38        0    0.0000
    582 C         120.5890  196.5884   90.2195 C.3      38        0    0.0000
    583 C         119.9697  196.3940   88.8297 C.3      38        0    0.0000
    584 C         119.5962  196.5398   91.3992 C.3      38        0    0.0000
    585 C         119.9172  197.7620   92.2789 C.3      38        0    0.0000
    586 C         119.7463  197.5311   93.7824 C.3      38        0    0.0000
    587 H         122.0693  197.4341   92.4067 H        38        0    0.0000
    588 H         121.6216  199.1365   92.1747 H        38        0    0.0000
    589 H         120.9218  198.7347   89.8986 H        38        0    0.0000
    590 H         122.4123  197.7895   90.0251 H        38        0    0.0000
    591 H         121.2903  195.7533   90.3653 H        38        0    0.0000
    592 H         119.1992  195.6161   88.8892 H        38        0    0.0000
    593 H         119.4603  197.3183   88.5320 H        38        0    0.0000
    594 H         119.7439  195.6035   91.9516 H        38        0    0.0000
    595 H         118.5488  196.5576   91.0802 H        38        0    0.0000
    596 H         119.2716  198.5933   91.9600 H        38        0    0.0000
    597 H         120.3956  196.7128   94.1156 H        38        0    0.0000
    598 H         120.0670  198.4281   94.3254 H        38        0    0.0000
    599 C         115.8428  198.3436   91.4831 C.3      39        0    0.0000
    600 C         117.1302  198.5426   92.2708 C.3      39        0    0.0000
    601 C         117.2989  197.2023   92.9940 C.3      39        0    0.0000
    602 C         118.2764  197.2100   94.1732 C.3      39        0    0.0000
    603 C         115.8672  196.7345   93.3207 C.3      39        0    0.0000
    604 C         114.9316  197.6353   92.4909 C.3      39        0    0.0000
    605 C         113.7049  196.9400   91.8926 C.3      39        0    0.0000
    606 H         115.4201  199.2944   91.1438 H        39        0    0.0000
    607 H         116.0407  197.7251   90.6008 H        39        0    0.0000
    608 H         117.9788  198.7669   91.6172 H        39        0    0.0000
    609 H         117.0104  199.3765   92.9711 H        39        0    0.0000
    610 H         117.7032  196.4913   92.2577 H        39        0    0.0000
    611 H         117.9396  197.9463   94.9126 H        39        0    0.0000
    612 H         118.2491  196.2318   94.6678 H        39        0    0.0000
    613 H         115.6200  196.8306   94.3835 H        39        0    0.0000
    614 H         115.7640  195.6722   93.0745 H        39        0    0.0000
    615 H         114.5498  198.4089   93.1743 H        39        0    0.0000
    616 H         112.8001  197.4653   92.2206 H        39        0    0.0000
    617 H         113.7410  197.0267   90.8002 H        39        0    0.0000
    618 C         110.1807  194.8744   93.6646 C.3      40        0    0.0000
    619 C         111.2386  195.9042   93.2609 C.3      40        0    0.0000
    620 C         112.6072  195.2236   93.4426 C.3      40        0    0.0000
    621 C         113.5743  195.4341   92.2710 C.3      40        0    0.0000
    622 C         112.2721  193.7451   93.6642 C.3      40        0    0.0000
    623 C         110.9300  193.7604   94.4037 C.3      40        0    0.0000
    624 C         111.0926  194.0366   95.9105 C.3      40        0    0.0000
    625 H         109.3738  195.3268   94.2489 H        40        0    0.0000
    626 H         109.7260  194.4601   92.7555 H        40        0    0.0000
    627 H         111.0629  196.2387   92.2325 H        40        0    0.0000
    628 H         111.1748  196.7892   93.9047 H        40        0    0.0000
    629 H         113.0657  195.6113   94.3636 H        40        0    0.0000
    630 H         114.5665  195.0573   92.5470 H        40        0    0.0000
    631 H         113.2479  194.8588   91.3970 H        40        0    0.0000
    632 H         113.0586  193.2254   94.2210 H        40        0    0.0000
    633 H         112.1533  193.2319   92.7011 H        40        0    0.0000
    634 H         110.4207  192.7988   94.2616 H        40        0    0.0000
    635 H         111.1594  195.1117   96.1108 H        40        0    0.0000
    636 H         112.0287  193.5880   96.2638 H        40        0    0.0000
    637 C         107.3358  191.7630   94.6645 C.3      41        0    0.0000
    638 C         108.6339  192.5740   94.6739 C.3      41        0    0.0000
    639 C         108.6067  193.4336   95.9504 C.3      41        0    0.0000
    640 C         109.9225  193.4305   96.7383 C.3      41        0    0.0000
    641 C         107.4376  192.8708   96.7650 C.3      41        0    0.0000
    642 C         106.4233  192.4068   95.7141 C.3      41        0    0.0000
    643 C         105.5834  193.5705   95.1543 C.3      41        0    0.0000
    644 H         106.8932  191.7141   93.6651 H        41        0    0.0000
    645 H         107.5610  190.7324   94.9673 H        41        0    0.0000
    646 H         109.4970  191.9004   94.6326 H        41        0    0.0000
    647 H         108.6857  193.2212   93.7905 H        41        0    0.0000
    648 H         108.3586  194.4661   95.6658 H        41        0    0.0000
    649 H         109.7997  194.0231   97.6527 H        41        0    0.0000
    650 H         110.1786  192.4119   97.0520 H        41        0    0.0000
    651 H         107.0246  193.6127   97.4561 H        41        0    0.0000
    652 H         107.7667  192.0097   97.3610 H        41        0    0.0000
    653 H         105.7568  191.6537   96.1534 H        41        0    0.0000
    654 H         105.1623  193.3191   94.1745 H        41        0    0.0000
    655 H         106.2265  194.4467   95.0093 H        41        0    0.0000
    656 C         104.7603  191.2995   98.6191 C.3      42        0    0.0000
    657 C         105.4925  192.2005   97.6258 C.3      42        0    0.0000
    658 C         104.7044  193.5203   97.5638 C.3      42        0    0.0000
    659 C         104.4321  193.9698   96.1222 C.3      42        0    0.0000
    660 C         103.4347  193.2567   98.3878 C.3      42        0    0.0000
    661 C         103.8550  192.2221   99.4394 C.3      42        0    0.0000
    662 C         104.5953  192.8185  100.6504 C.3      42        0    0.0000
    663 H         104.1394  190.5871   98.0610 H        42        0    0.0000
    664 H         105.4531  190.7138   99.2316 H        42        0    0.0000
    665 H         105.5750  191.7068   96.6514 H        42        0    0.0000
    666 H         106.5132  192.3978   97.9743 H        42        0    0.0000
    667 H         105.2988  194.2920   98.0731 H        42        0    0.0000
    668 H         104.2774  195.0543   96.0842 H        42        0    0.0000
    669 H         103.5043  193.5051   95.7673 H        42        0    0.0000
    670 H         103.0316  194.1751   98.8258 H        42        0    0.0000
    671 H         102.6510  192.8244   97.7521 H        42        0    0.0000
    672 H         102.9787  191.6627   99.7910 H        42        0    0.0000
    673 H         105.6145  193.1191  100.3846 H        42        0    0.0000
    674 H         104.6880  192.0524  101.4298 H        42        0    0.0000
    675 C         103.8375  194.0328  101.2579 C.3      43        0    0.0000
    676 C         103.3727  193.8174  102.7053 C.3      43        0    0.0000
    677 H         104.5357  194.8796  101.2470 H        43        0    0.0000
    678 H         102.9998  194.3089  100.6068 H        43        0    0.0000
    679 H         103.9296  193.0047  103.1864 H        43        0    0.0000
    680 H         103.5952  194.7296  103.2737 H        43        0    0.0000
    681 C         101.4085  191.6654   99.5807 C.3      44        0    0.0000
    682 C         102.2200  191.9851  100.8283 C.3      44        0    0.0000
    683 C         101.2201  192.7534  101.6988 C.3      44        0    0.0000
    684 C         101.8326  193.5595  102.8482 C.3      44        0    0.0000
    685 C         100.3556  193.5587  100.7091 C.3      44        0    0.0000
    686 C         100.6595  192.9755   99.3152 C.3      44        0    0.0000
    687 C          99.4600  192.8669   98.3689 C.3      44        0    0.0000
    688 H         102.0476  191.3794   98.7395 H        44        0    0.0000
    689 H         100.7250  190.8344   99.7867 H        44        0    0.0000
    690 H         102.5841  191.0790  101.3225 H        44        0    0.0000
    691 H         103.0874  192.5976  100.5587 H        44        0    0.0000
    692 H         100.5580  192.0051  102.1601 H        44        0    0.0000
    693 H         101.3190  194.5255  102.9215 H        44        0    0.0000
    694 H         101.6498  193.0331  103.7924 H        44        0    0.0000
    695 H         100.5863  194.6295  100.7160 H        44        0    0.0000
    696 H          99.3001  193.4684  100.9875 H        44        0    0.0000
    697 H         101.3750  193.6603   98.8354 H        44        0    0.0000
    698 H          99.6884  193.4002   97.4386 H        44        0    0.0000
    699 H          99.3097  191.8146   98.1001 H        44        0    0.0000
    700 C          98.5884  195.5764  102.0211 C.3      45        0    0.0000
    701 C          99.1403  194.9240  100.7509 C.3      45        0    0.0000
    702 C          98.2317  193.7240  100.4533 C.3      45        0    0.0000
    703 C          98.1297  193.4288   98.9543 C.3      45        0    0.0000
    704 C          96.9080  194.1161  101.1184 C.3      45        0    0.0000
    705 C          97.3692  194.7435  102.4381 C.3      45        0    0.0000
    706 C          96.3061  195.5841  103.1508 C.3      45        0    0.0000
    707 H          99.3394  195.5995  102.8180 H        45        0    0.0000
    708 H          98.3103  196.6153  101.8066 H        45        0    0.0000
    709 H         100.1800  194.6060  100.8837 H        45        0    0.0000
    710 H          99.1255  195.6517   99.9307 H        45        0    0.0000
    711 H          98.6404  192.8469  100.9758 H        45        0    0.0000
    712 H          97.8761  194.3522   98.4199 H        45        0    0.0000
    713 H          97.3172  192.7186   98.7610 H        45        0    0.0000
    714 H          96.2600  193.2493  101.2820 H        45        0    0.0000
    715 H          96.3617  194.8450  100.5067 H        45        0    0.0000
    716 H          97.7148  193.9410  103.1061 H        45        0    0.0000
    717 H          96.4976  196.6520  102.9937 H        45        0    0.0000
    718 H          96.3691  195.4072  104.2312 H        45        0    0.0000
    719 C          92.8571  193.9201  105.6041 C.3      46        0    0.0000
    720 C          94.0831  194.6485  105.0752 C.3      46        0    0.0000
    721 C          94.1151  194.2649  103.5903 C.3      46        0    0.0000
    722 C          94.8668  195.2418  102.6773 C.3      46        0    0.0000
    723 C          92.6487  193.9885  103.1992 C.3      46        0    0.0000
    724 C          91.8266  194.1321  104.4931 C.3      46        0    0.0000
    725 C          90.6443  193.1671  104.6108 C.3      46        0    0.0000
    726 H          93.0781  192.8545  105.7410 H        46        0    0.0000
    727 H          92.5212  194.3264  106.5631 H        46        0    0.0000
    728 H          93.9593  195.7271  105.2207 H        46        0    0.0000
    729 H          94.9960  194.3431  105.5960 H        46        0    0.0000
    730 H          94.6454  193.3036  103.5183 H        46        0    0.0000
    731 H          94.9214  194.8156  101.6685 H        46        0    0.0000
    732 H          94.2904  196.1709  102.5948 H        46        0    0.0000
    733 H          92.5735  192.9725  102.7920 H        46        0    0.0000
    734 H          92.2749  194.6682  102.4263 H        46        0    0.0000
    735 H          91.4621  195.1678  104.5547 H        46        0    0.0000
    736 H          90.9854  192.1949  104.9858 H        46        0    0.0000
    737 H          89.9312  193.5559  105.3474 H        46        0    0.0000
    738 C          86.8403  190.7339  102.9637 C.3      47        0    0.0000
    739 C          88.3352  190.9034  103.1964 C.3      47        0    0.0000
    740 C          88.4804  192.4154  103.3974 C.3      47        0    0.0000
    741 C          89.9041  192.9633  103.2591 C.3      47        0    0.0000
    742 C          87.4302  193.0513  102.4657 C.3      47        0    0.0000
    743 C          86.5062  191.8988  102.0261 C.3      47        0    0.0000
    744 C          85.0191  192.2494  101.9174 C.3      47        0    0.0000
    745 H          86.6038  189.7641  102.5150 H        47        0    0.0000
    746 H          86.3068  190.8066  103.9177 H        47        0    0.0000
    747 H          88.6800  190.3377  104.0674 H        47        0    0.0000
    748 H          88.8886  190.5492  102.3197 H        47        0    0.0000
    749 H          88.1610  192.6322  104.4280 H        47        0    0.0000
    750 H          90.4918  192.2795  102.6352 H        47        0    0.0000
    751 H          89.8691  193.9223  102.7286 H        47        0    0.0000
    752 H          87.8744  193.5218  101.5819 H        47        0    0.0000
    753 H          86.8969  193.8436  103.0021 H        47        0    0.0000
    754 H          86.8313  191.6002  101.0180 H        47        0    0.0000
    755 H          84.9135  193.1986  101.3787 H        47        0    0.0000
    756 H          84.5142  191.4864  101.3132 H        47        0    0.0000
    757 C          86.5621  192.7921  106.2874 C.3      48        0    0.0000
    758 C          86.2831  193.0148  104.8089 C.3      48        0    0.0000
    759 C          85.1568  192.0195  104.5027 C.3      48        0    0.0000
    760 C          84.2871  192.3676  103.2879 C.3      48        0    0.0000
    761 C          84.3943  191.8311  105.8304 C.3      48        0    0.0000
    762 C          85.1598  192.6528  106.8836 C.3      48        0    0.0000
    763 C          85.1866  192.0336  108.2831 C.3      48        0    0.0000
    764 H          87.1457  191.8743  106.4297 H        48        0    0.0000
    765 H          87.1188  193.6242  106.7291 H        48        0    0.0000
    766 H          85.9726  194.0527  104.6472 H        48        0    0.0000
    767 H          87.1696  192.8309  104.1937 H        48        0    0.0000
    768 H          85.6339  191.0545  104.2754 H        48        0    0.0000
    769 H          83.4117  191.7074  103.2763 H        48        0    0.0000
    770 H          83.9077  193.3902  103.4003 H        48        0    0.0000
    771 H          84.3855  190.7648  106.0886 H        48        0    0.0000
    772 H          83.3488  192.1522  105.7746 H        48        0    0.0000
    773 H          84.7063  193.6535  106.9340 H        48        0    0.0000
    774 H          86.0318  191.3412  108.3743 H        48        0    0.0000
    775 H          85.3460  192.8242  109.0261 H        48        0    0.0000
    776 C          82.6003  189.2402  106.3933 C.3      49        0    0.0000
    777 C          83.2328  190.6282  106.2601 C.3      49        0    0.0000
    778 C          82.8215  191.4173  107.5079 C.3      49        0    0.0000
    779 C          83.8700  191.2827  108.6283 C.3      49        0    0.0000
    780 C          81.4550  190.8043  107.8397 C.3      49        0    0.0000
    781 C          81.6415  189.3049  107.5938 C.3      49        0    0.0000
    782 C          80.3083  188.5787  107.3815 C.3      49        0    0.0000
    783 H          82.0871  188.9765  105.4615 H        49        0    0.0000
    784 H          83.3711  188.4803  106.5654 H        49        0    0.0000
    785 H          82.8220  191.1197  105.3691 H        49        0    0.0000
    786 H          84.3175  190.5717  106.1230 H        49        0    0.0000
    787 H          82.7051  192.4790  107.2549 H        49        0    0.0000
    788 H          84.1072  190.2219  108.7741 H        49        0    0.0000
    789 H          83.4799  191.6496  109.5837 H        49        0    0.0000
    790 H          80.6987  191.2108  107.1556 H        49        0    0.0000
    791 H          81.1184  191.0111  108.8600 H        49        0    0.0000
    792 H          82.1496  188.8710  108.4664 H        49        0    0.0000
    793 H          80.3667  187.5541  107.7669 H        49        0    0.0000
    794 H          80.1018  188.5032  106.3074 H        49        0    0.0000
    795 C          79.1274  189.3253  108.0659 C.3      50        0    0.0000
    796 C          78.1513  188.4011  108.8078 C.3      50        0    0.0000
    797 H          79.5692  190.0126  108.7987 H        50        0    0.0000
    798 H          78.6060  189.9465  107.3282 H        50        0    0.0000
    799 H          77.3937  187.9931  108.1284 H        50        0    0.0000
    800 H          78.7196  187.5454  109.1943 H        50        0    0.0000
    801 C          79.8254  191.4012  111.8518 C.3      51        0    0.0000
    802 C          79.4451  190.6288  110.5979 C.3      51        0    0.0000
    803 C          78.4157  189.6098  111.1029 C.3      51        0    0.0000
    804 C          77.4500  189.0721  110.0393 C.3      51        0    0.0000
    805 C          77.7501  190.2632  112.3316 C.3      51        0    0.0000
    806 C          78.4799  191.6009  112.5525 C.3      51        0    0.0000
    807 C          78.6474  192.0040  114.0196 C.3      51        0    0.0000
    808 H          80.5097  190.8079  112.4705 H        51        0    0.0000
    809 H          80.3138  192.3515  111.6153 H        51        0    0.0000
    810 H          79.0182  191.3163  109.8598 H        51        0    0.0000
    811 H          80.3116  190.1417  110.1397 H        51        0    0.0000
    812 H          78.9795  188.7418  111.4762 H        51        0    0.0000
    813 H          76.7809  188.3385  110.5047 H        51        0    0.0000
    814 H          76.8165  189.8930  109.6828 H        51        0    0.0000
    815 H          77.8683  189.5991  113.1968 H        51        0    0.0000
    816 H          76.6751  190.4263  112.2018 H        51        0    0.0000
    817 H          77.9262  192.3861  112.0175 H        51        0    0.0000
    818 H          79.5820  192.5612  114.1544 H        51        0    0.0000
    819 H          77.8335  192.6813  114.3044 H        51        0    0.0000
    820 C          77.0742  191.3989  117.7991 C.3      52        0    0.0000
    821 C          78.1309  192.1930  117.0264 C.3      52        0    0.0000
    822 C          79.0812  191.1646  116.4033 C.3      52        0    0.0000
    823 C          78.6376  190.7809  114.9790 C.3      52        0    0.0000
    824 C          79.0217  190.0160  117.4183 C.3      52        0    0.0000
    825 C          77.5453  189.9352  117.8145 C.3      52        0    0.0000
    826 C          77.3390  189.2157  119.1522 C.3      52        0    0.0000
    827 H          76.9639  191.8137  118.8075 H        52        0    0.0000
    828 H          76.0977  191.4769  117.3076 H        52        0    0.0000
    829 H          78.6889  192.8199  117.7334 H        52        0    0.0000
    830 H          77.6793  192.8654  116.2899 H        52        0    0.0000
    831 H          80.0980  191.5757  116.3608 H        52        0    0.0000
    832 H          77.6172  190.3804  115.0151 H        52        0    0.0000
    833 H          79.2699  189.9877  114.5661 H        52        0    0.0000
    834 H          79.6364  190.2707  118.2916 H        52        0    0.0000
    835 H          79.3907  189.0642  117.0246 H        52        0    0.0000
    836 H          77.0047  189.3895  117.0283 H        52        0    0.0000
    837 H          76.9660  188.1986  118.9846 H        52        0    0.0000
    838 H          76.5745  189.7429  119.7350 H        52        0    0.0000
    839 C          78.6510  189.1577  119.9862 C.3      53        0    0.0000
    840 C          78.9439  187.7782  120.5933 C.3      53        0    0.0000
    841 H          78.5351  189.8743  120.8094 H        53        0    0.0000
    842 H          79.4914  189.5125  119.3780 H        53        0    0.0000
    843 H          78.4234  187.7130  121.5573 H        53        0    0.0000
    844 H          78.5436  186.9732  119.9659 H        53        0    0.0000
    845 C          82.0842  184.6866  122.7756 C.3      54        0    0.0000
    846 C          82.1619  185.9468  121.9274 C.3      54        0    0.0000
    847 C          80.7253  186.1128  121.4279 C.3      54        0    0.0000
    848 C          80.4633  187.5182  120.8808 C.3      54        0    0.0000
    849 C          79.8672  185.7259  122.6463 C.3      54        0    0.0000
    850 C          80.7673  184.8526  123.5445 C.3      54        0    0.0000
    851 C          80.1318  183.5492  124.0445 C.3      54        0    0.0000
    852 H          82.9420  184.5939  123.4491 H        54        0    0.0000
    853 H          82.0738  183.8065  122.1235 H        54        0    0.0000
    854 H          82.4680  186.8010  122.5436 H        54        0    0.0000
    855 H          82.8766  185.8437  121.1051 H        54        0    0.0000
    856 H          80.5487  185.3718  120.6347 H        54        0    0.0000
    857 H          80.8319  188.2732  121.5853 H        54        0    0.0000
    858 H          81.0261  187.6552  119.9498 H        54        0    0.0000
    859 H          79.5549  186.6139  123.2099 H        54        0    0.0000
    860 H          78.9525  185.2146  122.3283 H        54        0    0.0000
    861 H          80.9916  185.4510  124.4401 H        54        0    0.0000
    862 H          80.0414  182.8496  123.2051 H        54        0    0.0000
    863 H          79.1123  183.7598  124.3890 H        54        0    0.0000
    864 C          78.4840  182.6150  128.0941 C.3      55        0    0.0000
    865 C          78.7686  182.9835  126.6461 C.3      55        0    0.0000
    866 C          80.2998  183.0541  126.5884 C.3      55        0    0.0000
    867 C          80.9129  182.8542  125.1966 C.3      55        0    0.0000
    868 C          80.8034  182.0861  127.6788 C.3      55        0    0.0000
    869 C          79.5469  181.5558  128.3935 C.3      55        0    0.0000
    870 C          79.7174  181.3179  129.8959 C.3      55        0    0.0000
    871 H          78.6066  183.4927  128.7404 H        55        0    0.0000
    872 H          77.4680  182.2308  128.2270 H        55        0    0.0000
    873 H          78.3655  182.2085  125.9851 H        55        0    0.0000
    874 H          78.3047  183.9350  126.3679 H        55        0    0.0000
    875 H          80.5870  184.0661  126.9107 H        55        0    0.0000
    876 H          81.9413  183.2348  125.2029 H        55        0    0.0000
    877 H          80.9769  181.7804  124.9843 H        55        0    0.0000
    878 H          81.4520  182.6358  128.3722 H        55        0    0.0000
    879 H          81.3979  181.2587  127.2774 H        55        0    0.0000
    880 H          79.2450  180.6176  127.9056 H        55        0    0.0000
    881 H          80.3335  182.1104  130.3369 H        55        0    0.0000
    882 H          78.7374  181.3725  130.3848 H        55        0    0.0000
    883 C          80.3565  179.9366  130.2121 C.3      56        0    0.0000
    884 C          79.3648  178.9015  130.7623 C.3      56        0    0.0000
    885 H          81.1255  180.1106  130.9756 H        56        0    0.0000
    886 H          80.8765  179.5581  129.3242 H        56        0    0.0000
    887 H          78.7527  179.3913  131.5305 H        56        0    0.0000
    888 H          78.6740  178.5577  129.9834 H        56        0    0.0000
    889 C          79.5577  177.3321  135.1099 C.3      57        0    0.0000
    890 C          79.2397  178.1416  133.8504 C.3      57        0    0.0000
    891 C          80.4370  177.9645  132.8994 C.3      57        0    0.0000
    892 C          80.0468  177.6665  131.4464 C.3      57        0    0.0000
    893 C          81.2588  176.8338  133.5264 C.3      57        0    0.0000
    894 C          81.0515  176.9975  135.0359 C.3      57        0    0.0000
    895 C          81.9485  178.0965  135.6364 C.3      57        0    0.0000
    896 H          79.2692  177.8655  136.0206 H        57        0    0.0000
    897 H          78.9788  176.3999  135.0862 H        57        0    0.0000
    898 H          78.2950  177.7996  133.4135 H        57        0    0.0000
    899 H          79.1162  179.2020  134.0995 H        57        0    0.0000
    900 H          81.0407  178.8828  132.9302 H        57        0    0.0000
    901 H          80.9457  177.4048  130.8754 H        57        0    0.0000
    902 H          79.3773  176.7999  131.3997 H        57        0    0.0000
    903 H          82.3129  176.8822  133.2343 H        57        0    0.0000
    904 H          80.8710  175.8576  133.2077 H        57        0    0.0000
    905 H          81.2542  176.0444  135.5407 H        57        0    0.0000
    906 H          81.4324  179.0628  135.6541 H        57        0    0.0000
    907 H          82.8390  178.2225  135.0091 H        57        0    0.0000
    908 C          82.4174  177.7369  137.0761 C.3      58        0    0.0000
    909 C          81.4590  178.2067  138.1799 C.3      58        0    0.0000
    910 H          82.4816  176.6423  137.1242 H        58        0    0.0000
    911 H          83.4322  178.1179  137.2402 H        58        0    0.0000
    912 H          82.0073  178.5429  139.0677 H        58        0    0.0000
    913 H          80.9071  179.0775  137.8035 H        58        0    0.0000
    914 C          80.5434  175.6170  141.4990 C.3      59        0    0.0000
    915 C          81.6346  176.0271  140.5063 C.3      59        0    0.0000
    916 C          81.0432  175.8395  139.1049 C.3      59        0    0.0000
    917 C          80.3896  177.1370  138.5930 C.3      59        0    0.0000
    918 C          80.0648  174.6782  139.3219 C.3      59        0    0.0000
    919 C          79.4137  174.9777  140.6746 C.3      59        0    0.0000
    920 C          78.7910  173.7299  141.3110 C.3      59        0    0.0000
    921 H          80.9599  174.9284  142.2429 H        59        0    0.0000
    922 H          80.1673  176.4919  142.0415 H        59        0    0.0000
    923 H          82.4944  175.3564  140.6293 H        59        0    0.0000
    924 H          81.9936  177.0448  140.6908 H        59        0    0.0000
    925 H          81.8334  175.5388  138.4050 H        59        0    0.0000
    926 H          79.7654  177.5637  139.3874 H        59        0    0.0000
    927 H          79.7245  176.9393  137.7456 H        59        0    0.0000
    928 H          80.6251  173.7353  139.3700 H        59        0    0.0000
    929 H          79.3216  174.5770  138.5254 H        59        0    0.0000
    930 H          78.6279  175.7308  140.5219 H        59        0    0.0000
    931 H          79.5121  173.2409  141.9763 H        59        0    0.0000
    932 H          78.5416  173.0066  140.5257 H        59        0    0.0000
    933 C          75.3367  171.0540  142.8716 C.3      60        0    0.0000
    934 C          75.4562  172.5137  142.4611 C.3      60        0    0.0000
    935 C          76.8894  172.8833  142.8639 C.3      60        0    0.0000
    936 C          77.4976  174.0700  142.1058 C.3      60        0    0.0000
    937 C          77.6946  171.5695  142.7926 C.3      60        0    0.0000
    938 C          76.6813  170.4654  142.4395 C.3      60        0    0.0000
    939 C          76.9560  169.1104  143.0966 C.3      60        0    0.0000
    940 H          75.2004  170.9748  143.9570 H        60        0    0.0000
    941 H          74.4920  170.5588  142.3830 H        60        0    0.0000
    942 H          75.2939  172.6049  141.3816 H        60        0    0.0000
    943 H          74.7149  173.1418  142.9651 H        60        0    0.0000
    944 H          76.8597  173.1758  143.9241 H        60        0    0.0000
    945 H          76.7508  174.4666  141.4076 H        60        0    0.0000
    946 H          77.7199  174.8739  142.8176 H        60        0    0.0000
    947 H          78.1606  171.3832  143.7682 H        60        0    0.0000
    948 H          78.5041  171.6013  142.0557 H        60        0    0.0000
    949 H          76.6699  170.3470  141.3462 H        60        0    0.0000
    950 H          76.3908  169.0221  144.0319 H        60        0    0.0000
    951 H          76.6006  168.3095  142.4374 H        60        0    0.0000
    952 C          80.6298  165.9848  144.4558 C.3      61        0    0.0000
    953 C          80.2352  167.0528  143.4323 C.3      61        0    0.0000
    954 C          78.7795  167.4273  143.7402 C.3      61        0    0.0000
    955 C          78.4662  168.8840  143.3875 C.3      61        0    0.0000
    956 C          78.6392  167.0861  145.2275 C.3      61        0    0.0000
    957 C          79.3960  165.7585  145.3394 C.3      61        0    0.0000
    958 C          79.7698  165.3557  146.7687 C.3      61        0    0.0000
    959 H          80.9376  165.0550  143.9655 H        61        0    0.0000
    960 H          81.4845  166.3406  145.0435 H        61        0    0.0000
    961 H          80.3367  166.6813  142.4069 H        61        0    0.0000
    962 H          80.9018  167.9178  143.5320 H        61        0    0.0000
    963 H          78.1242  166.7583  143.1636 H        61        0    0.0000
    964 H          79.0397  169.1726  142.4985 H        61        0    0.0000
    965 H          78.7852  169.5488  144.1988 H        61        0    0.0000
    966 H          77.5911  166.9859  145.5270 H        61        0    0.0000
    967 H          79.1049  167.8578  145.8532 H        61        0    0.0000
    968 H          78.7860  164.9672  144.8799 H        61        0    0.0000
    969 H          79.1281  165.8748  147.4902 H        61        0    0.0000
    970 H          80.7991  165.6717  146.9764 H        61        0    0.0000
    971 C          79.6684  163.8224  146.9961 C.3      62        0    0.0000
    972 C          80.6306  163.2854  148.0654 C.3      62        0    0.0000
    973 H          78.6423  163.6185  147.3282 H        62        0    0.0000
    974 H          79.7991  163.2979  146.0423 H        62        0    0.0000
    975 H          81.6007  163.7941  148.0206 H        62        0    0.0000
    976 H          80.2037  163.5100  149.0512 H        62        0    0.0000
    977 C          82.9744  160.4170  145.3237 C.3      63        0    0.0000
    978 C          82.3825  161.6678  145.9716 C.3      63        0    0.0000
    979 C          82.2325  161.3587  147.4712 C.3      63        0    0.0000
    980 C          80.8447  161.7331  148.0079 C.3      63        0    0.0000
    981 C          82.5710  159.8654  147.5985 C.3      63        0    0.0000
    982 C          83.5686  159.5895  146.4664 C.3      63        0    0.0000
    983 C          85.0151  160.0109  146.7837 C.3      63        0    0.0000
    984 H          82.1659  159.8474  144.8478 H        63        0    0.0000
    985 H          83.7001  160.6626  144.5420 H        63        0    0.0000
    986 H          81.4330  161.9326  145.4936 H        63        0    0.0000
    987 H          83.0591  162.5201  145.8378 H        63        0    0.0000
    988 H          82.9938  161.9380  148.0125 H        63        0    0.0000
    989 H          80.6928  161.3025  149.0045 H        63        0    0.0000
    990 H          80.0758  161.3013  147.3560 H        63        0    0.0000
    991 H          82.9653  159.6169  148.5887 H        63        0    0.0000
    992 H          81.6715  159.2561  147.4406 H        63        0    0.0000
    993 H          83.5526  158.5252  146.1991 H        63        0    0.0000
    994 H          85.1939  161.0560  146.5089 H        63        0    0.0000
    995 H          85.7067  159.4068  146.1841 H        63        0    0.0000
    996 C          83.2553  157.2386  150.0713 C.3      64        0    0.0000
    997 C          83.8348  157.8305  148.7838 C.3      64        0    0.0000
    998 C          84.1757  159.2932  149.0976 C.3      64        0    0.0000
    999 C          85.3690  159.8003  148.2831 C.3      64        0    0.0000
   1000 C          84.3963  159.2818  150.6140 C.3      64        0    0.0000
   1001 C          83.2702  158.3683  151.1094 C.3      64        0    0.0000
   1002 C          83.4545  157.8450  152.5366 C.3      64        0    0.0000
   1003 H          82.2389  156.8611  149.9162 H        64        0    0.0000
   1004 H          83.8714  156.3902  150.3926 H        64        0    0.0000
   1005 H          83.1213  157.7625  147.9556 H        64        0    0.0000
   1006 H          84.7272  157.2643  148.4911 H        64        0    0.0000
   1007 H          83.2900  159.9064  148.8767 H        64        0    0.0000
   1008 H          86.1876  159.0737  148.3494 H        64        0    0.0000
   1009 H          85.7455  160.7398  148.7046 H        64        0    0.0000
   1010 H          84.3280  160.2857  151.0447 H        64        0    0.0000
   1011 H          85.3797  158.8646  150.8648 H        64        0    0.0000
   1012 H          82.3181  158.9138  151.0358 H        64        0    0.0000
   1013 H          84.5097  157.9006  152.8287 H        64        0    0.0000
   1014 H          83.1718  156.7861  152.5731 H        64        0    0.0000
   1015 C          82.5909  158.6226  153.5673 C.3      65        0    0.0000
   1016 C          82.4255  157.9017  154.9128 C.3      65        0    0.0000
   1017 H          81.5956  158.7423  153.1205 H        65        0    0.0000
   1018 H          82.9970  159.6319  153.7028 H        65        0    0.0000
   1019 H          82.5661  158.6389  155.7136 H        65        0    0.0000
   1020 H          81.4111  157.5023  155.0292 H        65        0    0.0000
   1021 C          82.9736  153.3363  156.4957 C.3      66        0    0.0000
   1022 C          82.3665  154.4956  155.7017 C.3      66        0    0.0000
   1023 C          83.0083  155.7849  156.2449 C.3      66        0    0.0000
   1024 C          83.4737  156.7616  155.1578 C.3      66        0    0.0000
   1025 C          84.1644  155.2954  157.1230 C.3      66        0    0.0000
   1026 C          83.6702  153.9672  157.7063 C.3      66        0    0.0000
   1027 C          82.7294  154.1678  158.9095 C.3      66        0    0.0000
   1028 H          82.2223  152.5861  156.7600 H        66        0    0.0000
   1029 H          83.7232  152.8344  155.8706 H        66        0    0.0000
   1030 H          82.5446  154.3501  154.6305 H        66        0    0.0000
   1031 H          81.2806  154.5306  155.8476 H        66        0    0.0000
   1032 H          82.2766  156.2878  156.8931 H        66        0    0.0000
   1033 H          84.4216  157.2202  155.4634 H        66        0    0.0000
   1034 H          83.6668  156.2275  154.2204 H        66        0    0.0000
   1035 H          84.4312  156.0254  157.8942 H        66        0    0.0000
   1036 H          85.0588  155.1165  156.5123 H        66        0    0.0000
   1037 H          84.5296  153.3573  158.0123 H        66        0    0.0000
   1038 H          81.9241  153.4249  158.9104 H        66        0    0.0000
   1039 H          82.2538  155.1532  158.8393 H        66        0    0.0000
   1040 C          83.3550  150.6218  161.4367 C.3      67        0    0.0000
   1041 C          83.2018  151.5608  160.2411 C.3      67        0    0.0000
   1042 C          84.1698  152.7336  160.4746 C.3      67        0    0.0000
   1043 C          83.4973  154.0962  160.2613 C.3      67        0    0.0000
   1044 C          84.7098  152.5178  161.8967 C.3      67        0    0.0000
   1045 C          84.6811  150.9981  162.1028 C.3      67        0    0.0000
   1046 C          85.8698  150.2530  161.4686 C.3      67        0    0.0000
   1047 H          82.5327  150.8056  162.1399 H        67        0    0.0000
   1048 H          83.2997  149.5689  161.1429 H        67        0    0.0000
   1049 H          82.1595  151.8820  160.1389 H        67        0    0.0000
   1050 H          83.4710  151.0409  159.3141 H        67        0    0.0000
   1051 H          85.0022  152.6301  159.7642 H        67        0    0.0000
   1052 H          84.2418  154.8995  160.3058 H        67        0    0.0000
   1053 H          82.7848  154.2795  161.0745 H        67        0    0.0000
   1054 H          85.7066  152.9504  162.0272 H        67        0    0.0000
   1055 H          84.0469  152.9923  162.6320 H        67        0    0.0000
   1056 H          84.6366  150.7624  163.1738 H        67        0    0.0000
   1057 H          86.7361  150.9129  161.3523 H        67        0    0.0000
   1058 H          85.5915  149.9211  160.4610 H        67        0    0.0000
   1059 C          86.2791  148.9988  162.2916 C.3      68        0    0.0000
   1060 C          87.7862  148.8977  162.5667 C.3      68        0    0.0000
   1061 H          85.7609  149.0701  163.2565 H        68        0    0.0000
   1062 H          85.9019  148.0947  161.7995 H        68        0    0.0000
   1063 H          88.2988  148.3344  161.7781 H        68        0    0.0000
   1064 H          88.2042  149.9124  162.5497 H        68        0    0.0000
   1065 C          88.3459  145.4398  165.5895 C.3      69        0    0.0000
   1066 C          87.7181  145.7982  164.2398 C.3      69        0    0.0000
   1067 C          87.1281  147.2045  164.3921 C.3      69        0    0.0000
   1068 C          88.1387  148.2864  163.9670 C.3      69        0    0.0000
   1069 C          86.7519  147.2357  165.8789 C.3      69        0    0.0000
   1070 C          87.9180  146.5348  166.5806 C.3      69        0    0.0000
   1071 C          87.5353  146.0176  167.9720 C.3      69        0    0.0000
   1072 H          88.0137  144.4422  165.8988 H        69        0    0.0000
   1073 H          89.4386  145.4076  165.5099 H        69        0    0.0000
   1074 H          86.9097  145.0875  164.0262 H        69        0    0.0000
   1075 H          88.4389  145.7188  163.4197 H        69        0    0.0000
   1076 H          86.2256  147.2980  163.7745 H        69        0    0.0000
   1077 H          89.1390  147.8409  163.9057 H        69        0    0.0000
   1078 H          88.1990  149.0881  164.7108 H        69        0    0.0000
   1079 H          85.8224  146.6716  166.0304 H        69        0    0.0000
   1080 H          86.5894  148.2451  166.2683 H        69        0    0.0000
   1081 H          88.7441  147.2527  166.6811 H        69        0    0.0000
   1082 H          88.0246  145.0568  168.1695 H        69        0    0.0000
   1083 H          86.4544  145.8376  168.0088 H        69        0    0.0000
   1084 C          88.4269  145.5805  172.5641 C.3      70        0    0.0000
   1085 C          87.5943  145.7140  171.2967 C.3      70        0    0.0000
   1086 C          88.5602  146.3977  170.3236 C.3      70        0    0.0000
   1087 C          87.9110  147.0323  169.0898 C.3      70        0    0.0000
   1088 C          89.4060  147.3489  171.1927 C.3      70        0    0.0000
   1089 C          89.1341  146.9369  172.6527 C.3      70        0    0.0000
   1090 C          90.3449  146.9871  173.5895 C.3      70        0    0.0000
   1091 H          87.8053  145.3827  173.4427 H        70        0    0.0000
   1092 H          89.1360  144.7524  172.4555 H        70        0    0.0000
   1093 H          87.2563  144.7415  170.9254 H        70        0    0.0000
   1094 H          86.7093  146.3275  171.4983 H        70        0    0.0000
   1095 H          89.2428  145.6188  169.9516 H        70        0    0.0000
   1096 H          87.0056  147.5685  169.3976 H        70        0    0.0000
   1097 H          88.5936  147.7811  168.6709 H        70        0    0.0000
   1098 H          89.1397  148.4023  171.0539 H        70        0    0.0000
   1099 H          90.4615  147.2580  170.9142 H        70        0    0.0000
   1100 H          88.4004  147.6536  173.0518 H        70        0    0.0000
   1101 H          90.9934  146.1275  173.3827 H        70        0    0.0000
   1102 H          90.9327  147.8857  173.3676 H        70        0    0.0000
   1103 C          89.9825  146.9877  175.1050 C.3      71        0    0.0000
   1104 C          91.1845  147.2112  176.0338 C.3      71        0    0.0000
   1105 H          89.5576  146.0009  175.3295 H        71        0    0.0000
   1106 H          89.1898  147.7208  175.2950 H        71        0    0.0000
   1107 H          91.4738  146.2402  176.4559 H        71        0    0.0000
   1108 H          92.0537  147.5831  175.4788 H        71        0    0.0000
   1109 C          90.8855  148.1605  177.2455 C.3      72        0    0.0000
   1110 C          92.0572  148.3075  178.2268 C.3      72        0    0.0000
   1111 H          90.0387  147.7228  177.7894 H        72        0    0.0000
   1112 H          90.5498  149.1366  176.8760 H        72        0    0.0000
   1113 H          92.9880  148.1209  177.6760 H        72        0    0.0000
   1114 H          92.1240  149.3295  178.6180 H        72        0    0.0000
   1115 C          93.5767  148.8642  182.4711 C.3      73        0    0.0000
   1116 C          93.0333  148.9662  181.0436 C.3      73        0    0.0000
   1117 C          93.1247  147.5560  180.4461 C.3      73        0    0.0000
   1118 C          92.0233  147.2873  179.4170 C.3      73        0    0.0000
   1119 C          93.0788  146.6507  181.6816 C.3      73        0    0.0000
   1120 C          93.9739  147.3965  182.6768 C.3      73        0    0.0000
   1121 C          93.8187  146.9502  184.1333 C.3      73        0    0.0000
   1122 H          94.4349  149.5281  182.6211 H        73        0    0.0000
   1123 H          92.7995  149.1728  183.1805 H        73        0    0.0000
   1124 H          93.6074  149.6834  180.4471 H        73        0    0.0000
   1125 H          91.9970  149.3235  181.0721 H        73        0    0.0000
   1126 H          94.1100  147.4490  179.9694 H        73        0    0.0000
   1127 H          91.0450  147.3562  179.9075 H        73        0    0.0000
   1128 H          92.1093  146.2669  179.0255 H        73        0    0.0000
   1129 H          93.4553  145.6457  181.4665 H        73        0    0.0000
   1130 H          92.0547  146.5610  182.0651 H        73        0    0.0000
   1131 H          95.0215  147.2780  182.3636 H        73        0    0.0000
   1132 H          93.7677  145.8567  184.1926 H        73        0    0.0000
   1133 H          92.8707  147.3329  184.5301 H        73        0    0.0000
   1134 C          93.1701  149.2485  187.8637 C.3      74        0    0.0000
   1135 C          93.1446  148.5493  186.5117 C.3      74        0    0.0000
   1136 C          94.5332  147.9064  186.4334 C.3      74        0    0.0000
   1137 C          94.9747  147.4635  185.0351 C.3      74        0    0.0000
   1138 C          95.4781  148.8929  187.1471 C.3      74        0    0.0000
   1139 C          94.5639  149.8842  187.8935 C.3      74        0    0.0000
   1140 C          95.0563  150.3246  189.2754 C.3      74        0    0.0000
   1141 H          92.3754  149.9957  187.9526 H        74        0    0.0000
   1142 H          93.0359  148.5121  188.6637 H        74        0    0.0000
   1143 H          92.3434  147.8063  186.4508 H        74        0    0.0000
   1144 H          92.9863  149.2864  185.7169 H        74        0    0.0000
   1145 H          94.4992  146.9974  187.0527 H        74        0    0.0000
   1146 H          95.4670  148.3043  184.5321 H        74        0    0.0000
   1147 H          95.7256  146.6703  185.1308 H        74        0    0.0000
   1148 H          96.1237  149.4418  186.4530 H        74        0    0.0000
   1149 H          96.1449  148.3407  187.8181 H        74        0    0.0000
   1150 H          94.5129  150.7935  187.2757 H        74        0    0.0000
   1151 H          95.5911  149.4916  189.7471 H        74        0    0.0000
   1152 H          95.7824  151.1373  189.1550 H        74        0    0.0000
   1153 C          93.9259  150.8016  190.2360 C.3      75        0    0.0000
   1154 C          93.8420  150.0040  191.5454 C.3      75        0    0.0000
   1155 H          94.1443  151.8473  190.4877 H        75        0    0.0000
   1156 H          92.9661  150.8007  189.7063 H        75        0    0.0000
   1157 H          94.2964  149.0121  191.4380 H        75        0    0.0000
   1158 H          94.4269  150.5364  192.3063 H        75        0    0.0000
   1159 C          91.3271  146.5003  193.1416 C.3      76        0    0.0000
   1160 C          92.4688  147.3547  192.5929 C.3      76        0    0.0000
   1161 C          92.2866  148.7646  193.1811 C.3      76        0    0.0000
   1162 C          92.3869  149.8602  192.1116 C.3      76        0    0.0000
   1163 C          90.9305  148.7155  193.9018 C.3      76        0    0.0000
   1164 C          90.7766  147.2575  194.3530 C.3      76        0    0.0000
   1165 C          91.5465  146.9110  195.6404 C.3      76        0    0.0000
   1166 H          90.5431  146.4226  192.3775 H        76        0    0.0000
   1167 H          91.6514  145.4817  193.3766 H        76        0    0.0000
   1168 H          92.4604  147.3452  191.4975 H        76        0    0.0000
   1169 H          93.4349  146.9456  192.9111 H        76        0    0.0000
   1170 H          93.0758  148.9219  193.9298 H        76        0    0.0000
   1171 H          92.0526  150.8215  192.5186 H        76        0    0.0000
   1172 H          91.7142  149.6173  191.2803 H        76        0    0.0000
   1173 H          90.8797  149.4291  194.7298 H        76        0    0.0000
   1174 H          90.1195  148.9629  193.2045 H        76        0    0.0000
   1175 H          89.7152  147.0140  194.4899 H        76        0    0.0000
   1176 H          92.6279  147.0060  195.4946 H        76        0    0.0000
   1177 H          91.3569  145.8633  195.9034 H        76        0    0.0000
   1178 C          87.5039  148.3911  196.1690 C.3      77        0    0.0000
   1179 C          88.8697  148.0380  195.5751 C.3      77        0    0.0000
   1180 C          89.9263  148.7055  196.4736 C.3      77        0    0.0000
   1181 C          91.1047  147.7952  196.8408 C.3      77        0    0.0000
   1182 C          89.1420  149.1699  197.7051 C.3      77        0    0.0000
   1183 C          87.7533  149.5286  197.1653 C.3      77        0    0.0000
   1184 C          87.7190  150.9235  196.5126 C.3      77        0    0.0000
   1185 H          86.7732  148.6365  195.3925 H        77        0    0.0000
   1186 H          87.1174  147.5176  196.7098 H        77        0    0.0000
   1187 H          88.9843  146.9498  195.5196 H        77        0    0.0000
   1188 H          88.9527  148.4249  194.5527 H        77        0    0.0000
   1189 H          90.3065  149.5971  195.9549 H        77        0    0.0000
   1190 H          91.9568  148.4117  197.1511 H        77        0    0.0000
   1191 H          90.8454  147.1588  197.6947 H        77        0    0.0000
   1192 H          89.6314  150.0087  198.2106 H        77        0    0.0000
   1193 H          89.0521  148.3519  198.4315 H        77        0    0.0000
   1194 H          87.0201  149.4888  197.9809 H        77        0    0.0000
   1195 H          87.9111  150.8614  195.4358 H        77        0    0.0000
   1196 H          88.5127  151.5461  196.9424 H        77        0    0.0000
   1197 C          84.2798  148.4860  196.4629 C.3      78        0    0.0000
   1198 C          85.3406  149.4163  195.8949 C.3      78        0    0.0000
   1199 C          85.1353  150.7170  196.6817 C.3      78        0    0.0000
   1200 C          86.3584  151.6400  196.7523 C.3      78        0    0.0000
   1201 C          84.5470  150.2925  198.0431 C.3      78        0    0.0000
   1202 C          84.3455  148.7680  197.9653 C.3      78        0    0.0000
   1203 C          83.1109  148.2469  198.7049 C.3      78        0    0.0000
   1204 H          83.2938  148.7404  196.0551 H        78        0    0.0000
   1205 H          84.4870  147.4372  196.2292 H        78        0    0.0000
   1206 H          86.3334  148.9847  196.0619 H        78        0    0.0000
   1207 H          85.2179  149.5664  194.8177 H        78        0    0.0000
   1208 H          84.3484  151.2850  196.1634 H        78        0    0.0000
   1209 H          86.2458  152.4373  196.0080 H        78        0    0.0000
   1210 H          86.3828  152.1280  197.7339 H        78        0    0.0000
   1211 H          83.5927  150.8115  198.1969 H        78        0    0.0000
   1212 H          85.1903  150.5547  198.8896 H        78        0    0.0000
   1213 H          85.2463  148.2820  198.3677 H        78        0    0.0000
   1214 H          83.2802  147.2187  199.0460 H        78        0    0.0000
   1215 H          82.9441  148.8529  199.6034 H        78        0    0.0000
   1216 C          78.7435  147.0051  199.6386 C.3      79        0    0.0000
   1217 C          80.2296  146.9063  199.3240 C.3      79        0    0.0000
   1218 C          80.5199  148.2378  198.6236 C.3      79        0    0.0000
   1219 C          81.8279  148.2908  197.8283 C.3      79        0    0.0000
   1220 C          79.2427  148.5628  197.8245 C.3      79        0    0.0000
   1221 C          78.1608  147.6005  198.3526 C.3      79        0    0.0000
   1222 C          76.7547  148.1943  198.4813 C.3      79        0    0.0000
   1223 H          78.3094  146.0282  199.8730 H        79        0    0.0000
   1224 H          78.5909  147.6613  200.5026 H        79        0    0.0000
   1225 H          80.8314  146.7780  200.2290 H        79        0    0.0000
   1226 H          80.4129  146.0475  198.6690 H        79        0    0.0000
   1227 H          80.6023  149.0014  199.4117 H        79        0    0.0000
   1228 H          81.8532  147.4504  197.1245 H        79        0    0.0000
   1229 H          81.8441  149.2068  197.2258 H        79        0    0.0000
   1230 H          79.3668  148.4175  196.7460 H        79        0    0.0000
   1231 H          78.9807  149.6169  197.9660 H        79        0    0.0000
   1232 H          78.0872  146.7780  197.6252 H        79        0    0.0000
   1233 H          76.7657  149.2248  198.1070 H        79        0    0.0000
   1234 H          76.0681  147.6325  197.8371 H        79        0    0.0000
   1235 C          76.1904  148.1952  199.9338 C.3      80        0    0.0000
   1236 C          74.9000  147.3803  200.1023 C.3      80        0    0.0000
   1237 H          75.9688  149.2399  200.1869 H        80        0    0.0000
   1238 H          76.9669  147.8615  200.6320 H        80        0    0.0000
   1239 H          74.0536  148.0219  199.8254 H        80        0    0.0000
   1240 H          74.8786  146.5218  199.4208 H        80        0    0.0000
   1241 C          74.6857  149.9278  203.8141 C.3      81        0    0.0000
   1242 C          74.7196  149.2952  202.4205 C.3      81        0    0.0000
   1243 C          75.2188  147.8570  202.6125 C.3      81        0    0.0000
   1244 C          74.6395  146.8960  201.5707 C.3      81        0    0.0000
   1245 C          74.8258  147.5423  204.0597 C.3      81        0    0.0000
   1246 C          75.1658  148.8457  204.7901 C.3      81        0    0.0000
   1247 C          74.5276  148.9863  206.1749 C.3      81        0    0.0000
   1248 H          75.3252  150.8156  203.8663 H        81        0    0.0000
   1249 H          73.6631  150.2503  204.0439 H        81        0    0.0000
   1250 H          75.3769  149.8520  201.7440 H        81        0    0.0000
   1251 H          73.7132  149.3159  201.9855 H        81        0    0.0000
   1252 H          76.3161  147.8627  202.5403 H        81        0    0.0000
   1253 H          73.5570  146.8078  201.7219 H        81        0    0.0000
   1254 H          75.0600  145.8923  201.7039 H        81        0    0.0000
   1255 H          75.3860  146.6912  204.4597 H        81        0    0.0000
   1256 H          73.7547  147.3171  204.1359 H        81        0    0.0000
   1257 H          76.2593  148.9239  204.8775 H        81        0    0.0000
   1258 H          74.1318  149.9996  206.3101 H        81        0    0.0000
   1259 H          75.2959  148.8418  206.9439 H        81        0    0.0000
   1260 C          73.3926  147.9522  206.4102 C.3      82        0    0.0000
   1261 C          72.6979  148.0875  207.7728 C.3      82        0    0.0000
   1262 H          72.6423  148.1216  205.6272 H        82        0    0.0000
   1263 H          73.7798  146.9377  206.2589 H        82        0    0.0000
   1264 H          73.4186  148.3148  208.5670 H        82        0    0.0000
   1265 H          72.0092  148.9405  207.7206 H        82        0    0.0000
   1266 C          71.8633  146.8807  211.8888 C.3      83        0    0.0000
   1267 C          71.6213  146.0515  210.6252 C.3      83        0    0.0000
   1268 C          71.1561  147.0346  209.5361 C.3      83        0    0.0000
   1269 C          71.8413  146.8383  208.1780 C.3      83        0    0.0000
   1270 C          71.4268  148.4201  210.1312 C.3      83        0    0.0000
   1271 C          71.2070  148.2426  211.6374 C.3      83        0    0.0000
   1272 C          69.7155  148.2759  212.0214 C.3      83        0    0.0000
   1273 H          71.4967  146.3727  212.7859 H        83        0    0.0000
   1274 H          72.9443  147.0207  212.0177 H        83        0    0.0000
   1275 H          72.5345  145.5123  210.3501 H        83        0    0.0000
   1276 H          70.8434  145.3002  210.8051 H        83        0    0.0000
   1277 H          70.0695  146.9229  209.4119 H        83        0    0.0000
   1278 H          72.5019  145.9646  208.2276 H        83        0    0.0000
   1279 H          71.0974  146.6304  207.4003 H        83        0    0.0000
   1280 H          70.7795  149.1876  209.6946 H        83        0    0.0000
   1281 H          72.4667  148.7189  209.9461 H        83        0    0.0000
   1282 H          71.7422  149.0303  212.1828 H        83        0    0.0000
   1283 H          69.1849  149.0666  211.4795 H        83        0    0.0000
   1284 H          69.6198  148.5026  213.0899 H        83        0    0.0000
   1285 C          68.8071  143.8639  213.8603 C.3      84        0    0.0000
   1286 C          68.8744  145.3928  213.8332 C.3      84        0    0.0000
   1287 C          69.6565  145.7765  212.5642 C.3      84        0    0.0000
   1288 C          69.0190  146.9105  211.7519 C.3      84        0    0.0000
   1289 C          69.7550  144.4719  211.7672 C.3      84        0    0.0000
   1290 C          69.8333  143.3736  212.8331 C.3      84        0    0.0000
   1291 C          71.2505  143.2223  213.4177 C.3      84        0    0.0000
   1292 H          68.9661  143.4670  214.8675 H        84        0    0.0000
   1293 H          67.8040  143.5489  213.5452 H        84        0    0.0000
   1294 H          67.8628  145.8130  213.8530 H        84        0    0.0000
   1295 H          69.3980  145.7674  214.7205 H        84        0    0.0000
   1296 H          70.6727  146.0723  212.8616 H        84        0    0.0000
   1297 H          69.1023  146.6825  210.6826 H        84        0    0.0000
   1298 H          67.9493  146.9888  211.9776 H        84        0    0.0000
   1299 H          70.6151  144.4691  211.0898 H        84        0    0.0000
   1300 H          68.8531  144.3271  211.1584 H        84        0    0.0000
   1301 H          69.5127  142.4174  212.4004 H        84        0    0.0000
   1302 H          71.5220  144.0914  214.0271 H        84        0    0.0000
   1303 H          71.9779  143.1674  212.5991 H        84        0    0.0000
   1304 H          71.3461  142.3173  214.0176 H        84        0    0.0000
   1305 H         149.4725  149.3598   48.9284 H         0        0    0.0000
@<TRIPOS>BOND
     1     1     2      1
     2     1     6      1
     3     1     8      1
     4     1     9      1
     5     2     3      1
     6     2    10      1
     7     2    11      1
     8     3     4      1
     9     3     5      1
    10     3    12      1
    11     4    13      1
    12     4    14      1
    13     4  1305      H
    14     5     6      1
    15     5    15      1
    16     5    16      1
    17     6     7      1
    18     6    17      1
    19     7    18      1
    20     7    19      1
    21     7    23      1
    22    20    21      1
    23    20    25      1
    24    20    27      1
    25    20    28      1
    26    21    22      1
    27    21    29      1
    28    21    30      1
    29    22    23      1
    30    22    24      1
    31    22    31      1
    32    23    32      1
    33    23    33      1
    34    24    25      1
    35    24    34      1
    36    24    35      1
    37    25    26      1
    38    25    36      1
    39    26    37      1
    40    26    38      1
    41    26    39      1
    42    39    40      1
    43    39    41      1
    44    39    42      1
    45    40    43      1
    46    40    44      1
    47    40    48      1
    48    45    46      1
    49    45    50      1
    50    45    52      1
    51    45    53      1
    52    46    47      1
    53    46    54      1
    54    46    55      1
    55    47    48      1
    56    47    49      1
    57    47    56      1
    58    48    57      1
    59    48    58      1
    60    49    50      1
    61    49    59      1
    62    49    60      1
    63    50    51      1
    64    50    61      1
    65    51    62      1
    66    51    63      1
    67    51    64      1
    68    64    65      1
    69    64    66      1
    70    64    67      1
    71    65    68      1
    72    65    69      1
    73    65    73      1
    74    70    71      1
    75    70    75      1
    76    70    77      1
    77    70    78      1
    78    71    72      1
    79    71    79      1
    80    71    80      1
    81    72    73      1
    82    72    74      1
    83    72    81      1
    84    73    82      1
    85    73    83      1
    86    74    75      1
    87    74    84      1
    88    74    85      1
    89    75    76      1
    90    75    86      1
    91    76    87      1
    92    76    88      1
    93    76    92      1
    94    89    90      1
    95    89    94      1
    96    89    96      1
    97    89    97      1
    98    90    91      1
    99    90    98      1
   100    90    99      1
   101    91    92      1
   102    91    93      1
   103    91   100      1
   104    92   101      1
   105    92   102      1
   106    93    94      1
   107    93   103      1
   108    93   104      1
   109    94    95      1
   110    94   105      1
   111    95   106      1
   112    95   107      1
   113    95   108      1
   114   108   109      1
   115   108   110      1
   116   108   111      1
   117   109   112      1
   118   109   113      1
   119   109   114      1
   120   114   115      1
   121   114   116      1
   122   114   117      1
   123   115   118      1
   124   115   119      1
   125   115   120      1
   126   120   121      1
   127   120   122      1
   128   120   123      1
   129   121   124      1
   130   121   125      1
   131   121   126      1
   132   126   127      1
   133   126   128      1
   134   126   129      1
   135   127   130      1
   136   127   131      1
   137   127   135      1
   138   132   133      1
   139   132   137      1
   140   132   139      1
   141   132   140      1
   142   133   134      1
   143   133   141      1
   144   133   142      1
   145   134   135      1
   146   134   136      1
   147   134   143      1
   148   135   144      1
   149   135   145      1
   150   136   137      1
   151   136   146      1
   152   136   147      1
   153   137   138      1
   154   137   148      1
   155   138   149      1
   156   138   150      1
   157   138   154      1
   158   151   152      1
   159   151   156      1
   160   151   158      1
   161   151   159      1
   162   152   153      1
   163   152   160      1
   164   152   161      1
   165   153   154      1
   166   153   155      1
   167   153   162      1
   168   154   163      1
   169   154   164      1
   170   155   156      1
   171   155   165      1
   172   155   166      1
   173   156   157      1
   174   156   167      1
   175   157   168      1
   176   157   169      1
   177   157   170      1
   178   170   171      1
   179   170   172      1
   180   170   173      1
   181   171   174      1
   182   171   175      1
   183   171   179      1
   184   176   177      1
   185   176   181      1
   186   176   183      1
   187   176   184      1
   188   177   178      1
   189   177   185      1
   190   177   186      1
   191   178   179      1
   192   178   180      1
   193   178   187      1
   194   179   188      1
   195   179   189      1
   196   180   181      1
   197   180   190      1
   198   180   191      1
   199   181   182      1
   200   181   192      1
   201   182   193      1
   202   182   194      1
   203   182   195      1
   204   195   196      1
   205   195   197      1
   206   195   198      1
   207   196   199      1
   208   196   200      1
   209   196   204      1
   210   201   202      1
   211   201   206      1
   212   201   208      1
   213   201   209      1
   214   202   203      1
   215   202   210      1
   216   202   211      1
   217   203   204      1
   218   203   205      1
   219   203   212      1
   220   204   213      1
   221   204   214      1
   222   205   206      1
   223   205   215      1
   224   205   216      1
   225   206   207      1
   226   206   217      1
   227   207   218      1
   228   207   219      1
   229   207   223      1
   230   220   221      1
   231   220   225      1
   232   220   227      1
   233   220   228      1
   234   221   222      1
   235   221   229      1
   236   221   230      1
   237   222   223      1
   238   222   224      1
   239   222   231      1
   240   223   232      1
   241   223   233      1
   242   224   225      1
   243   224   234      1
   244   224   235      1
   245   225   226      1
   246   225   236      1
   247   226   237      1
   248   226   238      1
   249   226   242      1
   250   239   240      1
   251   239   244      1
   252   239   246      1
   253   239   247      1
   254   240   241      1
   255   240   248      1
   256   240   249      1
   257   241   242      1
   258   241   243      1
   259   241   250      1
   260   242   251      1
   261   242   252      1
   262   243   244      1
   263   243   253      1
   264   243   254      1
   265   244   245      1
   266   244   255      1
   267   245   256      1
   268   245   257      1
   269   245   261      1
   270   258   259      1
   271   258   263      1
   272   258   265      1
   273   258   266      1
   274   259   260      1
   275   259   267      1
   276   259   268      1
   277   260   261      1
   278   260   262      1
   279   260   269      1
   280   261   270      1
   281   261   271      1
   282   262   263      1
   283   262   272      1
   284   262   273      1
   285   263   264      1
   286   263   274      1
   287   264   275      1
   288   264   276      1
   289   264   277      1
   290   277   278      1
   291   277   279      1
   292   277   280      1
   293   278   281      1
   294   278   282      1
   295   278   286      1
   296   283   284      1
   297   283   288      1
   298   283   290      1
   299   283   291      1
   300   284   285      1
   301   284   292      1
   302   284   293      1
   303   285   286      1
   304   285   287      1
   305   285   294      1
   306   286   295      1
   307   286   296      1
   308   287   288      1
   309   287   297      1
   310   287   298      1
   311   288   289      1
   312   288   299      1
   313   289   300      1
   314   289   301      1
   315   289   305      1
   316   302   303      1
   317   302   307      1
   318   302   309      1
   319   302   310      1
   320   303   304      1
   321   303   311      1
   322   303   312      1
   323   304   305      1
   324   304   306      1
   325   304   313      1
   326   305   314      1
   327   305   315      1
   328   306   307      1
   329   306   316      1
   330   306   317      1
   331   307   308      1
   332   307   318      1
   333   308   319      1
   334   308   320      1
   335   308   324      1
   336   321   322      1
   337   321   326      1
   338   321   328      1
   339   321   329      1
   340   322   323      1
   341   322   330      1
   342   322   331      1
   343   323   324      1
   344   323   325      1
   345   323   332      1
   346   324   333      1
   347   324   334      1
   348   325   326      1
   349   325   335      1
   350   325   336      1
   351   326   327      1
   352   326   337      1
   353   327   338      1
   354   327   339      1
   355   327   343      1
   356   340   341      1
   357   340   345      1
   358   340   347      1
   359   340   348      1
   360   341   342      1
   361   341   349      1
   362   341   350      1
   363   342   343      1
   364   342   344      1
   365   342   351      1
   366   343   352      1
   367   343   353      1
   368   344   345      1
   369   344   354      1
   370   344   355      1
   371   345   346      1
   372   345   356      1
   373   346   357      1
   374   346   358      1
   375   346   362      1
   376   359   360      1
   377   359   364      1
   378   359   366      1
   379   359   367      1
   380   360   361      1
   381   360   368      1
   382   360   369      1
   383   361   362      1
   384   361   363      1
   385   361   370      1
   386   362   371      1
   387   362   372      1
   388   363   364      1
   389   363   373      1
   390   363   374      1
   391   364   365      1
   392   364   375      1
   393   365   376      1
   394   365   377      1
   395   365   381      1
   396   378   379      1
   397   378   383      1
   398   378   385      1
   399   378   386      1
   400   379   380      1
   401   379   387      1
   402   379   388      1
   403   380   381      1
   404   380   382      1
   405   380   389      1
   406   381   390      1
   407   381   391      1
   408   382   383      1
   409   382   392      1
   410   382   393      1
   411   383   384      1
   412   383   394      1
   413   384   395      1
   414   384   396      1
   415   384   397      1
   416   397   398      1
   417   397   399      1
   418   397   400      1
   419   398   401      1
   420   398   402      1
   421   398   406      1
   422   403   404      1
   423   403   408      1
   424   403   410      1
   425   403   411      1
   426   404   405      1
   427   404   412      1
   428   404   413      1
   429   405   406      1
   430   405   407      1
   431   405   414      1
   432   406   415      1
   433   406   416      1
   434   407   408      1
   435   407   417      1
   436   407   418      1
   437   408   409      1
   438   408   419      1
   439   409   420      1
   440   409   421      1
   441   409   425      1
   442   422   423      1
   443   422   427      1
   444   422   429      1
   445   422   430      1
   446   423   424      1
   447   423   431      1
   448   423   432      1
   449   424   425      1
   450   424   426      1
   451   424   433      1
   452   425   434      1
   453   425   435      1
   454   426   427      1
   455   426   436      1
   456   426   437      1
   457   427   428      1
   458   427   438      1
   459   428   439      1
   460   428   440      1
   461   428   444      1
   462   441   442      1
   463   441   446      1
   464   441   448      1
   465   441   449      1
   466   442   443      1
   467   442   450      1
   468   442   451      1
   469   443   444      1
   470   443   445      1
   471   443   452      1
   472   444   453      1
   473   444   454      1
   474   445   446      1
   475   445   455      1
   476   445   456      1
   477   446   447      1
   478   446   457      1
   479   447   458      1
   480   447   459      1
   481   447   463      1
   482   460   461      1
   483   460   465      1
   484   460   467      1
   485   460   468      1
   486   461   462      1
   487   461   469      1
   488   461   470      1
   489   462   463      1
   490   462   464      1
   491   462   471      1
   492   463   472      1
   493   463   473      1
   494   464   465      1
   495   464   474      1
   496   464   475      1
   497   465   466      1
   498   465   476      1
   499   466   477      1
   500   466   478      1
   501   466   479      1
   502   479   480      1
   503   479   481      1
   504   479   482      1
   505   480   483      1
   506   480   484      1
   507   480   488      1
   508   485   486      1
   509   485   490      1
   510   485   492      1
   511   485   493      1
   512   486   487      1
   513   486   494      1
   514   486   495      1
   515   487   488      1
   516   487   489      1
   517   487   496      1
   518   488   497      1
   519   488   498      1
   520   489   490      1
   521   489   499      1
   522   489   500      1
   523   490   491      1
   524   490   501      1
   525   491   502      1
   526   491   503      1
   527   491   507      1
   528   504   505      1
   529   504   509      1
   530   504   511      1
   531   504   512      1
   532   505   506      1
   533   505   513      1
   534   505   514      1
   535   506   507      1
   536   506   508      1
   537   506   515      1
   538   507   516      1
   539   507   517      1
   540   508   509      1
   541   508   518      1
   542   508   519      1
   543   509   510      1
   544   509   520      1
   545   510   521      1
   546   510   522      1
   547   510   526      1
   548   523   524      1
   549   523   528      1
   550   523   530      1
   551   523   531      1
   552   524   525      1
   553   524   532      1
   554   524   533      1
   555   525   526      1
   556   525   527      1
   557   525   534      1
   558   526   535      1
   559   526   536      1
   560   527   528      1
   561   527   537      1
   562   527   538      1
   563   528   529      1
   564   528   539      1
   565   529   540      1
   566   529   541      1
   567   529   545      1
   568   542   543      1
   569   542   547      1
   570   542   549      1
   571   542   550      1
   572   543   544      1
   573   543   551      1
   574   543   552      1
   575   544   545      1
   576   544   546      1
   577   544   553      1
   578   545   554      1
   579   545   555      1
   580   546   547      1
   581   546   556      1
   582   546   557      1
   583   547   548      1
   584   547   558      1
   585   548   559      1
   586   548   560      1
   587   548   564      1
   588   561   562      1
   589   561   566      1
   590   561   568      1
   591   561   569      1
   592   562   563      1
   593   562   570      1
   594   562   571      1
   595   563   564      1
   596   563   565      1
   597   563   572      1
   598   564   573      1
   599   564   574      1
   600   565   566      1
   601   565   575      1
   602   565   576      1
   603   566   567      1
   604   566   577      1
   605   567   578      1
   606   567   579      1
   607   567   583      1
   608   580   581      1
   609   580   585      1
   610   580   587      1
   611   580   588      1
   612   581   582      1
   613   581   589      1
   614   581   590      1
   615   582   583      1
   616   582   584      1
   617   582   591      1
   618   583   592      1
   619   583   593      1
   620   584   585      1
   621   584   594      1
   622   584   595      1
   623   585   586      1
   624   585   596      1
   625   586   597      1
   626   586   598      1
   627   586   602      1
   628   599   600      1
   629   599   604      1
   630   599   606      1
   631   599   607      1
   632   600   601      1
   633   600   608      1
   634   600   609      1
   635   601   602      1
   636   601   603      1
   637   601   610      1
   638   602   611      1
   639   602   612      1
   640   603   604      1
   641   603   613      1
   642   603   614      1
   643   604   605      1
   644   604   615      1
   645   605   616      1
   646   605   617      1
   647   605   621      1
   648   618   619      1
   649   618   623      1
   650   618   625      1
   651   618   626      1
   652   619   620      1
   653   619   627      1
   654   619   628      1
   655   620   621      1
   656   620   622      1
   657   620   629      1
   658   621   630      1
   659   621   631      1
   660   622   623      1
   661   622   632      1
   662   622   633      1
   663   623   624      1
   664   623   634      1
   665   624   635      1
   666   624   636      1
   667   624   640      1
   668   637   638      1
   669   637   642      1
   670   637   644      1
   671   637   645      1
   672   638   639      1
   673   638   646      1
   674   638   647      1
   675   639   640      1
   676   639   641      1
   677   639   648      1
   678   640   649      1
   679   640   650      1
   680   641   642      1
   681   641   651      1
   682   641   652      1
   683   642   643      1
   684   642   653      1
   685   643   654      1
   686   643   655      1
   687   643   659      1
   688   656   657      1
   689   656   661      1
   690   656   663      1
   691   656   664      1
   692   657   658      1
   693   657   665      1
   694   657   666      1
   695   658   659      1
   696   658   660      1
   697   658   667      1
   698   659   668      1
   699   659   669      1
   700   660   661      1
   701   660   670      1
   702   660   671      1
   703   661   662      1
   704   661   672      1
   705   662   673      1
   706   662   674      1
   707   662   675      1
   708   675   676      1
   709   675   677      1
   710   675   678      1
   711   676   679      1
   712   676   680      1
   713   676   684      1
   714   681   682      1
   715   681   686      1
   716   681   688      1
   717   681   689      1
   718   682   683      1
   719   682   690      1
   720   682   691      1
   721   683   684      1
   722   683   685      1
   723   683   692      1
   724   684   693      1
   725   684   694      1
   726   685   686      1
   727   685   695      1
   728   685   696      1
   729   686   687      1
   730   686   697      1
   731   687   698      1
   732   687   699      1
   733   687   703      1
   734   700   701      1
   735   700   705      1
   736   700   707      1
   737   700   708      1
   738   701   702      1
   739   701   709      1
   740   701   710      1
   741   702   703      1
   742   702   704      1
   743   702   711      1
   744   703   712      1
   745   703   713      1
   746   704   705      1
   747   704   714      1
   748   704   715      1
   749   705   706      1
   750   705   716      1
   751   706   717      1
   752   706   718      1
   753   706   722      1
   754   719   720      1
   755   719   724      1
   756   719   726      1
   757   719   727      1
   758   720   721      1
   759   720   728      1
   760   720   729      1
   761   721   722      1
   762   721   723      1
   763   721   730      1
   764   722   731      1
   765   722   732      1
   766   723   724      1
   767   723   733      1
   768   723   734      1
   769   724   725      1
   770   724   735      1
   771   725   736      1
   772   725   737      1
   773   725   741      1
   774   738   739      1
   775   738   743      1
   776   738   745      1
   777   738   746      1
   778   739   740      1
   779   739   747      1
   780   739   748      1
   781   740   741      1
   782   740   742      1
   783   740   749      1
   784   741   750      1
   785   741   751      1
   786   742   743      1
   787   742   752      1
   788   742   753      1
   789   743   744      1
   790   743   754      1
   791   744   755      1
   792   744   756      1
   793   744   760      1
   794   757   758      1
   795   757   762      1
   796   757   764      1
   797   757   765      1
   798   758   759      1
   799   758   766      1
   800   758   767      1
   801   759   760      1
   802   759   761      1
   803   759   768      1
   804   760   769      1
   805   760   770      1
   806   761   762      1
   807   761   771      1
   808   761   772      1
   809   762   763      1
   810   762   773      1
   811   763   774      1
   812   763   775      1
   813   763   779      1
   814   776   777      1
   815   776   781      1
   816   776   783      1
   817   776   784      1
   818   777   778      1
   819   777   785      1
   820   777   786      1
   821   778   779      1
   822   778   780      1
   823   778   787      1
   824   779   788      1
   825   779   789      1
   826   780   781      1
   827   780   790      1
   828   780   791      1
   829   781   782      1
   830   781   792      1
   831   782   793      1
   832   782   794      1
   833   782   795      1
   834   795   796      1
   835   795   797      1
   836   795   798      1
   837   796   799      1
   838   796   800      1
   839   796   804      1
   840   801   802      1
   841   801   806      1
   842   801   808      1
   843   801   809      1
   844   802   803      1
   845   802   810      1
   846   802   811      1
   847   803   804      1
   848   803   805      1
   849   803   812      1
   850   804   813      1
   851   804   814      1
   852   805   806      1
   853   805   815      1
   854   805   816      1
   855   806   807      1
   856   806   817      1
   857   807   818      1
   858   807   819      1
   859   807   823      1
   860   820   821      1
   861   820   825      1
   862   820   827      1
   863   820   828      1
   864   821   822      1
   865   821   829      1
   866   821   830      1
   867   822   823      1
   868   822   824      1
   869   822   831      1
   870   823   832      1
   871   823   833      1
   872   824   825      1
   873   824   834      1
   874   824   835      1
   875   825   826      1
   876   825   836      1
   877   826   837      1
   878   826   838      1
   879   826   839      1
   880   839   840      1
   881   839   841      1
   882   839   842      1
   883   840   843      1
   884   840   844      1
   885   840   848      1
   886   845   846      1
   887   845   850      1
   888   845   852      1
   889   845   853      1
   890   846   847      1
   891   846   854      1
   892   846   855      1
   893   847   848      1
   894   847   849      1
   895   847   856      1
   896   848   857      1
   897   848   858      1
   898   849   850      1
   899   849   859      1
   900   849   860      1
   901   850   851      1
   902   850   861      1
   903   851   862      1
   904   851   863      1
   905   851   867      1
   906   864   865      1
   907   864   869      1
   908   864   871      1
   909   864   872      1
   910   865   866      1
   911   865   873      1
   912   865   874      1
   913   866   867      1
   914   866   868      1
   915   866   875      1
   916   867   876      1
   917   867   877      1
   918   868   869      1
   919   868   878      1
   920   868   879      1
   921   869   870      1
   922   869   880      1
   923   870   881      1
   924   870   882      1
   925   870   883      1
   926   883   884      1
   927   883   885      1
   928   883   886      1
   929   884   887      1
   930   884   888      1
   931   884   892      1
   932   889   890      1
   933   889   894      1
   934   889   896      1
   935   889   897      1
   936   890   891      1
   937   890   898      1
   938   890   899      1
   939   891   892      1
   940   891   893      1
   941   891   900      1
   942   892   901      1
   943   892   902      1
   944   893   894      1
   945   893   903      1
   946   893   904      1
   947   894   895      1
   948   894   905      1
   949   895   906      1
   950   895   907      1
   951   895   908      1
   952   908   909      1
   953   908   910      1
   954   908   911      1
   955   909   912      1
   956   909   913      1
   957   909   917      1
   958   914   915      1
   959   914   919      1
   960   914   921      1
   961   914   922      1
   962   915   916      1
   963   915   923      1
   964   915   924      1
   965   916   917      1
   966   916   918      1
   967   916   925      1
   968   917   926      1
   969   917   927      1
   970   918   919      1
   971   918   928      1
   972   918   929      1
   973   919   920      1
   974   919   930      1
   975   920   931      1
   976   920   932      1
   977   920   936      1
   978   933   934      1
   979   933   938      1
   980   933   940      1
   981   933   941      1
   982   934   935      1
   983   934   942      1
   984   934   943      1
   985   935   936      1
   986   935   937      1
   987   935   944      1
   988   936   945      1
   989   936   946      1
   990   937   938      1
   991   937   947      1
   992   937   948      1
   993   938   939      1
   994   938   949      1
   995   939   950      1
   996   939   951      1
   997   939   955      1
   998   952   953      1
   999   952   957      1
  1000   952   959      1
  1001   952   960      1
  1002   953   954      1
  1003   953   961      1
  1004   953   962      1
  1005   954   955      1
  1006   954   956      1
  1007   954   963      1
  1008   955   964      1
  1009   955   965      1
  1010   956   957      1
  1011   956   966      1
  1012   956   967      1
  1013   957   958      1
  1014   957   968      1
  1015   958   969      1
  1016   958   970      1
  1017   958   971      1
  1018   971   972      1
  1019   971   973      1
  1020   971   974      1
  1021   972   975      1
  1022   972   976      1
  1023   972   980      1
  1024   977   978      1
  1025   977   982      1
  1026   977   984      1
  1027   977   985      1
  1028   978   979      1
  1029   978   986      1
  1030   978   987      1
  1031   979   980      1
  1032   979   981      1
  1033   979   988      1
  1034   980   989      1
  1035   980   990      1
  1036   981   982      1
  1037   981   991      1
  1038   981   992      1
  1039   982   983      1
  1040   982   993      1
  1041   983   994      1
  1042   983   995      1
  1043   983   999      1
  1044   996   997      1
  1045   996  1001      1
  1046   996  1003      1
  1047   996  1004      1
  1048   997   998      1
  1049   997  1005      1
  1050   997  1006      1
  1051   998   999      1
  1052   998  1000      1
  1053   998  1007      1
  1054   999  1008      1
  1055   999  1009      1
  1056  1000  1001      1
  1057  1000  1010      1
  1058  1000  1011      1
  1059  1001  1002      1
  1060  1001  1012      1
  1061  1002  1013      1
  1062  1002  1014      1
  1063  1002  1015      1
  1064  1015  1016      1
  1065  1015  1017      1
  1066  1015  1018      1
  1067  1016  1019      1
  1068  1016  1020      1
  1069  1016  1024      1
  1070  1021  1022      1
  1071  1021  1026      1
  1072  1021  1028      1
  1073  1021  1029      1
  1074  1022  1023      1
  1075  1022  1030      1
  1076  1022  1031      1
  1077  1023  1024      1
  1078  1023  1025      1
  1079  1023  1032      1
  1080  1024  1033      1
  1081  1024  1034      1
  1082  1025  1026      1
  1083  1025  1035      1
  1084  1025  1036      1
  1085  1026  1027      1
  1086  1026  1037      1
  1087  1027  1038      1
  1088  1027  1039      1
  1089  1027  1043      1
  1090  1040  1041      1
  1091  1040  1045      1
  1092  1040  1047      1
  1093  1040  1048      1
  1094  1041  1042      1
  1095  1041  1049      1
  1096  1041  1050      1
  1097  1042  1043      1
  1098  1042  1044      1
  1099  1042  1051      1
  1100  1043  1052      1
  1101  1043  1053      1
  1102  1044  1045      1
  1103  1044  1054      1
  1104  1044  1055      1
  1105  1045  1046      1
  1106  1045  1056      1
  1107  1046  1057      1
  1108  1046  1058      1
  1109  1046  1059      1
  1110  1059  1060      1
  1111  1059  1061      1
  1112  1059  1062      1
  1113  1060  1063      1
  1114  1060  1064      1
  1115  1060  1068      1
  1116  1065  1066      1
  1117  1065  1070      1
  1118  1065  1072      1
  1119  1065  1073      1
  1120  1066  1067      1
  1121  1066  1074      1
  1122  1066  1075      1
  1123  1067  1068      1
  1124  1067  1069      1
  1125  1067  1076      1
  1126  1068  1077      1
  1127  1068  1078      1
  1128  1069  1070      1
  1129  1069  1079      1
  1130  1069  1080      1
  1131  1070  1071      1
  1132  1070  1081      1
  1133  1071  1082      1
  1134  1071  1083      1
  1135  1071  1087      1
  1136  1084  1085      1
  1137  1084  1089      1
  1138  1084  1091      1
  1139  1084  1092      1
  1140  1085  1086      1
  1141  1085  1093      1
  1142  1085  1094      1
  1143  1086  1087      1
  1144  1086  1088      1
  1145  1086  1095      1
  1146  1087  1096      1
  1147  1087  1097      1
  1148  1088  1089      1
  1149  1088  1098      1
  1150  1088  1099      1
  1151  1089  1090      1
  1152  1089  1100      1
  1153  1090  1101      1
  1154  1090  1102      1
  1155  1090  1103      1
  1156  1103  1104      1
  1157  1103  1105      1
  1158  1103  1106      1
  1159  1104  1107      1
  1160  1104  1108      1
  1161  1104  1109      1
  1162  1109  1110      1
  1163  1109  1111      1
  1164  1109  1112      1
  1165  1110  1113      1
  1166  1110  1114      1
  1167  1110  1118      1
  1168  1115  1116      1
  1169  1115  1120      1
  1170  1115  1122      1
  1171  1115  1123      1
  1172  1116  1117      1
  1173  1116  1124      1
  1174  1116  1125      1
  1175  1117  1118      1
  1176  1117  1119      1
  1177  1117  1126      1
  1178  1118  1127      1
  1179  1118  1128      1
  1180  1119  1120      1
  1181  1119  1129      1
  1182  1119  1130      1
  1183  1120  1121      1
  1184  1120  1131      1
  1185  1121  1132      1
  1186  1121  1133      1
  1187  1121  1137      1
  1188  1134  1135      1
  1189  1134  1139      1
  1190  1134  1141      1
  1191  1134  1142      1
  1192  1135  1136      1
  1193  1135  1143      1
  1194  1135  1144      1
  1195  1136  1137      1
  1196  1136  1138      1
  1197  1136  1145      1
  1198  1137  1146      1
  1199  1137  1147      1
  1200  1138  1139      1
  1201  1138  1148      1
  1202  1138  1149      1
  1203  1139  1140      1
  1204  1139  1150      1
  1205  1140  1151      1
  1206  1140  1152      1
  1207  1140  1153      1
  1208  1153  1154      1
  1209  1153  1155      1
  1210  1153  1156      1
  1211  1154  1157      1
  1212  1154  1158      1
  1213  1154  1162      1
  1214  1159  1160      1
  1215  1159  1164      1
  1216  1159  1166      1
  1217  1159  1167      1
  1218  1160  1161      1
  1219  1160  1168      1
  1220  1160  1169      1
  1221  1161  1162      1
  1222  1161  1163      1
  1223  1161  1170      1
  1224  1162  1171      1
  1225  1162  1172      1
  1226  1163  1164      1
  1227  1163  1173      1
  1228  1163  1174      1
  1229  1164  1165      1
  1230  1164  1175      1
  1231  1165  1176      1
  1232  1165  1177      1
  1233  1165  1181      1
  1234  1178  1179      1
  1235  1178  1183      1
  1236  1178  1185      1
  1237  1178  1186      1
  1238  1179  1180      1
  1239  1179  1187      1
  1240  1179  1188      1
  1241  1180  1181      1
  1242  1180  1182      1
  1243  1180  1189      1
  1244  1181  1190      1
  1245  1181  1191      1
  1246  1182  1183      1
  1247  1182  1192      1
  1248  1182  1193      1
  1249  1183  1184      1
  1250  1183  1194      1
  1251  1184  1195      1
  1252  1184  1196      1
  1253  1184  1200      1
  1254  1197  1198      1
  1255  1197  1202      1
  1256  1197  1204      1
  1257  1197  1205      1
  1258  1198  1199      1
  1259  1198  1206      1
  1260  1198  1207      1
  1261  1199  1200      1
  1262  1199  1201      1
  1263  1199  1208      1
  1264  1200  1209      1
  1265  1200  1210      1
  1266  1201  1202      1
  1267  1201  1211      1
  1268  1201  1212      1
  1269  1202  1203      1
  1270  1202  1213      1
  1271  1203  1214      1
  1272  1203  1215      1
  1273  1203  1219      1
  1274  1216  1217      1
  1275  1216  1221      1
  1276  1216  1223      1
  1277  1216  1224      1
  1278  1217  1218      1
  1279  1217  1225      1
  1280  1217  1226      1
  1281  1218  1219      1
  1282  1218  1220      1
  1283  1218  1227      1
  1284  1219  1228      1
  1285  1219  1229      1
  1286  1220  1221      1
  1287  1220  1230      1
  1288  1220  1231      1
  1289  1221  1222      1
  1290  1221  1232      1
  1291  1222  1233      1
  1292  1222  1234      1
  1293  1222  1235      1
  1294  1235  1236      1
  1295  1235  1237      1
  1296  1235  1238      1
  1297  1236  1239      1
  1298  1236  1240      1
  1299  1236  1244      1
  1300  1241  1242      1
  1301  1241  1246      1
  1302  1241  1248      1
  1303  1241  1249      1
  1304  1242  1243      1
  1305  1242  1250      1
  1306  1242  1251      1
  1307  1243  1244      1
  1308  1243  1245      1
  1309  1243  1252      1
  1310  1244  1253      1
  1311  1244  1254      1
  1312  1245  1246      1
  1313  1245  1255      1
  1314  1245  1256      1
  1315  1246  1247      1
  1316  1246  1257      1
  1317  1247  1258      1
  1318  1247  1259      1
  1319  1247  1260      1
  1320  1260  1261      1
  1321  1260  1262      1
  1322  1260  1263      1
  1323  1261  1264      1
  1324  1261  1265      1
  1325  1261  1269      1
  1326  1266  1267      1
  1327  1266  1271      1
  1328  1266  1273      1
  1329  1266  1274      1
  1330  1267  1268      1
  1331  1267  1275      1
  1332  1267  1276      1
  1333  1268  1269      1
  1334  1268  1270      1
  1335  1268  1277      1
  1336  1269  1278      1
  1337  1269  1279      1
  1338  1270  1271      1
  1339  1270  1280      1
  1340  1270  1281      1
  1341  1271  1272      1
  1342  1271  1282      1
  1343  1272  1283      1
  1344  1272  1284      1
  1345  1272  1288      1
  1346  1285  1286      1
  1347  1285  1290      1
  1348  1285  1292      1
  1349  1285  1293      1
  1350  1286  1287      1
  1351  1286  1294      1
  1352  1286  1295      1
  1353  1287  1288      1
  1354  1287  1289      1
  1355  1287  1296      1
  1356  1288  1297      1
  1357  1288  1298      1
  1358  1289  1290      1
  1359  1289  1299      1
  1360  1289  1300      1
  1361  1290  1291      1
  1362  1290  1301      1
  1363  1291  1302      1
  1364  1291  1303      1
  1365  1291  1304      H
