###
### Created by PolyChef-cpp17 on Wed Feb 26 21:14:12 2025
###

@<TRIPOS>MOLECULE
NO_INFO
1116 1167 1 0 0
SMALL
USER_CHARGES


@<TRIPOS>ATOM
      1 C         170.4922  146.7643   53.9715 C.3       0        0    0.0000
      2 C         170.9834  146.4693   52.5612 C.3       0        0    0.0000
      3 C         172.3973  145.9285   52.7980 C.3       0        0    0.0000
      4 C         173.3090  145.9106   51.5672 C.3       0        0    0.0000
      5 C         172.9340  146.7131   54.0111 C.3       0        0    0.0000
      6 C         171.7114  147.4205   54.6277 C.3       0        0    0.0000
      7 C         171.6835  147.4771   56.1582 C.3       0        0    0.0000
      8 H         169.6200  147.4254   53.9707 H         0        0    0.0000
      9 H         170.2101  145.8295   54.4682 H         0        0    0.0000
     10 H         170.3452  145.7420   52.0498 H         0        0    0.0000
     11 H         170.9886  147.3920   51.9706 H         0        0    0.0000
     12 H         172.2886  144.8822   53.1214 H         0        0    0.0000
     13 H         173.3646  146.9222   51.1481 H         0        0    0.0000
     14 H         174.3257  145.6422   51.8782 H         0        0    0.0000
     15 H         173.6881  147.4584   53.7363 H         0        0    0.0000
     16 H         173.4220  146.0222   54.7071 H         0        0    0.0000
     17 H         171.7397  148.4633   54.2771 H         0        0    0.0000
     18 H         170.8300  148.0863   56.4784 H         0        0    0.0000
     19 H         171.5150  146.4674   56.5511 H         0        0    0.0000
     20 C         173.9780  151.3704   55.4666 C.3       1        0    0.0000
     21 C         172.9900  150.2048   55.3758 C.3       1        0    0.0000
     22 C         173.7537  148.9447   55.8210 C.3       1        0    0.0000
     23 C         172.9801  148.0545   56.8014 C.3       1        0    0.0000
     24 C         175.0566  149.4806   56.4231 C.3       1        0    0.0000
     25 C         175.3681  150.7410   55.6089 C.3       1        0    0.0000
     26 C         176.0278  150.4176   54.2549 C.3       1        0    0.0000
     27 H         173.8860  152.0497   54.6139 H         1        0    0.0000
     28 H         173.7535  151.9542   56.3685 H         1        0    0.0000
     29 H         172.1100  150.4102   55.9952 H         1        0    0.0000
     30 H         172.6387  150.0820   54.3446 H         1        0    0.0000
     31 H         174.0069  148.3602   54.9249 H         1        0    0.0000
     32 H         173.6169  147.2177   57.1121 H         1        0    0.0000
     33 H         172.7263  148.6146   57.7087 H         1        0    0.0000
     34 H         175.8616  148.7395   56.3842 H         1        0    0.0000
     35 H         174.9073  149.7529   57.4760 H         1        0    0.0000
     36 H         176.0274  151.3996   56.1883 H         1        0    0.0000
     37 H         175.8925  151.2390   53.5426 H         1        0    0.0000
     38 H         175.5471  149.5344   53.8176 H         1        0    0.0000
     39 C         177.5465  150.1154   54.4099 C.3       2        0    0.0000
     40 C         177.8665  148.6326   54.6474 C.3       2        0    0.0000
     41 H         178.0278  150.4215   53.4722 H         2        0    0.0000
     42 H         177.9700  150.7464   55.2001 H         2        0    0.0000
     43 H         177.2992  147.9879   53.9658 H         2        0    0.0000
     44 H         178.9282  148.4727   54.4198 H         2        0    0.0000
     45 C         174.5068  147.4806   57.9868 C.3       3        0    0.0000
     46 C         175.2194  147.4428   56.6327 C.3       3        0    0.0000
     47 C         176.2644  148.5727   56.6536 C.3       3        0    0.0000
     48 C         177.6449  148.1620   56.1267 C.3       3        0    0.0000
     49 C         176.3092  149.0245   58.1169 C.3       3        0    0.0000
     50 C         174.8783  148.8225   58.6270 C.3       3        0    0.0000
     51 C         173.9393  149.9714   58.2129 C.3       3        0    0.0000
     52 H         173.4288  147.3236   57.8843 H         3        0    0.0000
     53 H         174.8925  146.6649   58.6118 H         3        0    0.0000
     54 H         175.6642  146.4547   56.4706 H         3        0    0.0000
     55 H         174.5036  147.6130   55.8200 H         3        0    0.0000
     56 H         175.8813  149.4081   56.0502 H         3        0    0.0000
     57 H         178.4223  148.6125   56.7553 H         3        0    0.0000
     58 H         177.7725  147.0754   56.1934 H         3        0    0.0000
     59 H         176.6541  150.0588   58.2164 H         3        0    0.0000
     60 H         176.9956  148.3894   58.6919 H         3        0    0.0000
     61 H         174.8867  148.7339   59.7208 H         3        0    0.0000
     62 H         172.9776  149.9036   58.7332 H         3        0    0.0000
     63 H         173.7267  149.8988   57.1397 H         3        0    0.0000
     64 C         174.5758  151.3648   58.4870 C.3       4        0    0.0000
     65 C         173.7724  152.2367   59.4626 C.3       4        0    0.0000
     66 H         175.5633  151.1806   58.9292 H         4        0    0.0000
     67 H         174.7496  151.8849   57.5377 H         4        0    0.0000
     68 H         173.8036  153.2933   59.1718 H         4        0    0.0000
     69 H         172.7207  151.9274   59.4087 H         4        0    0.0000
     70 C         176.4475  149.7121   60.5893 C.3       5        0    0.0000
     71 C         174.9463  149.7520   60.2910 C.3       5        0    0.0000
     72 C         174.3057  150.6106   61.3871 C.3       5        0    0.0000
     73 C         174.2118  152.0876   60.9604 C.3       5        0    0.0000
     74 C         175.2335  150.3520   62.5810 C.3       5        0    0.0000
     75 C         176.6395  150.3489   61.9757 C.3       5        0    0.0000
     76 C         177.6573  149.6306   62.8690 C.3       5        0    0.0000
     77 H         176.8049  148.6768   60.5511 H         5        0    0.0000
     78 H         177.0057  150.2762   59.8333 H         5        0    0.0000
     79 H         174.5468  148.7316   60.3505 H         5        0    0.0000
     80 H         174.7399  150.1180   59.2801 H         5        0    0.0000
     81 H         173.2968  150.2392   61.6084 H         5        0    0.0000
     82 H         175.1944  152.5601   61.0790 H         5        0    0.0000
     83 H         173.5189  152.6431   61.6013 H         5        0    0.0000
     84 H         175.0035  149.3696   63.0137 H         5        0    0.0000
     85 H         175.1355  151.0928   63.3802 H         5        0    0.0000
     86 H         176.9594  151.3912   61.8366 H         5        0    0.0000
     87 H         178.6778  149.8355   62.5253 H         5        0    0.0000
     88 H         177.5077  148.5471   62.7929 H         5        0    0.0000
     89 C         174.4535  151.6364   65.8874 C.3       6        0    0.0000
     90 C         175.1098  150.5596   65.0194 C.3       6        0    0.0000
     91 C         176.4558  151.1366   64.5618 C.3       6        0    0.0000
     92 C         177.5164  150.0507   64.3603 C.3       6        0    0.0000
     93 C         176.7870  152.1574   65.6556 C.3       6        0    0.0000
     94 C         175.4302  152.8192   65.9181 C.3       6        0    0.0000
     95 C         175.3479  153.6082   67.2278 C.3       6        0    0.0000
     96 H         173.4820  151.9396   65.4825 H         6        0    0.0000
     97 H         174.2758  151.2365   66.8929 H         6        0    0.0000
     98 H         174.4815  150.2999   64.1606 H         6        0    0.0000
     99 H         175.2451  149.6462   65.6110 H         6        0    0.0000
    100 H         176.2941  151.6753   63.6167 H         6        0    0.0000
    101 H         177.2443  149.1656   64.9477 H         6        0    0.0000
    102 H         178.4875  150.3931   64.7363 H         6        0    0.0000
    103 H         177.5383  152.8817   65.3251 H         6        0    0.0000
    104 H         177.1620  151.6585   66.5580 H         6        0    0.0000
    105 H         175.1934  153.4812   65.0723 H         6        0    0.0000
    106 H         175.9648  153.1313   67.9984 H         6        0    0.0000
    107 H         174.3149  153.5927   67.5954 H         6        0    0.0000
    108 C         175.7886  155.0877   67.0552 C.3       7        0    0.0000
    109 C         176.0943  155.8059   68.3773 C.3       7        0    0.0000
    110 H         176.7065  155.0767   66.4536 H         7        0    0.0000
    111 H         175.0371  155.6312   66.4705 H         7        0    0.0000
    112 H         175.1904  155.9213   68.9868 H         7        0    0.0000
    113 H         176.7839  155.1771   68.9548 H         7        0    0.0000
    114 C         176.7928  157.1984   68.1993 C.3       8        0    0.0000
    115 C         177.2316  157.8495   69.5187 C.3       8        0    0.0000
    116 H         176.0611  157.8609   67.7195 H         8        0    0.0000
    117 H         177.6338  157.1034   67.5023 H         8        0    0.0000
    118 H         176.9076  158.8980   69.5052 H         8        0    0.0000
    119 H         176.7388  157.3803   70.3783 H         8        0    0.0000
    120 C         178.7840  157.8582   69.7396 C.3       9        0    0.0000
    121 C         179.2194  158.4572   71.0846 C.3       9        0    0.0000
    122 H         179.1141  156.8119   69.7100 H         9        0    0.0000
    123 H         179.2738  158.3652   68.8999 H         9        0    0.0000
    124 H         179.8105  157.7411   71.6674 H         9        0    0.0000
    125 H         179.8758  159.3127   70.8797 H         9        0    0.0000
    126 C         178.0325  158.9960   71.9562 C.3      10        0    0.0000
    127 C         178.4764  159.7193   73.2357 C.3      10        0    0.0000
    128 H         177.4329  158.1244   72.2483 H        10        0    0.0000
    129 H         177.3831  159.6319   71.3433 H        10        0    0.0000
    130 H         178.5108  158.9827   74.0487 H        10        0    0.0000
    131 H         179.4910  160.1221   73.1347 H        10        0    0.0000
    132 C         179.5911  162.3600   76.4907 C.3      11        0    0.0000
    133 C         179.3217  162.1485   75.0074 C.3      11        0    0.0000
    134 C         177.9111  161.5504   74.9982 C.3      11        0    0.0000
    135 C         177.4998  160.8564   73.6962 C.3      11        0    0.0000
    136 C         177.8306  160.6814   76.2686 C.3      11        0    0.0000
    137 C         179.0523  161.0724   77.1228 C.3      11        0    0.0000
    138 C         178.8092  161.1337   78.6339 C.3      11        0    0.0000
    139 H         180.6563  162.5045   76.6962 H        11        0    0.0000
    140 H         179.0534  163.2477   76.8416 H        11        0    0.0000
    141 H         179.3747  163.0857   74.4447 H        11        0    0.0000
    142 H         180.0644  161.4592   74.5911 H        11        0    0.0000
    143 H         177.2095  162.3859   75.1420 H        11        0    0.0000
    144 H         176.4967  160.4310   73.8187 H        11        0    0.0000
    145 H         177.4293  161.6047   72.8979 H        11        0    0.0000
    146 H         177.8631  159.6080   76.0529 H        11        0    0.0000
    147 H         176.8785  160.8653   76.7780 H        11        0    0.0000
    148 H         179.8136  160.2945   76.9601 H        11        0    0.0000
    149 H         179.4900  161.8705   79.0765 H        11        0    0.0000
    150 H         177.7907  161.4949   78.8187 H        11        0    0.0000
    151 C         182.1918  160.7174   81.1401 C.3      12        0    0.0000
    152 C         181.1941  160.9012   79.9935 C.3      12        0    0.0000
    153 C         180.4321  159.5753   79.8691 C.3      12        0    0.0000
    154 C         178.9985  159.7726   79.3686 C.3      12        0    0.0000
    155 C         180.5407  158.9778   81.2760 C.3      12        0    0.0000
    156 C         181.9911  159.2881   81.6607 C.3      12        0    0.0000
    157 C         182.2946  159.1655   83.1565 C.3      12        0    0.0000
    158 H         183.2223  160.8714   80.8025 H        12        0    0.0000
    159 H         181.9913  161.4608   81.9210 H        12        0    0.0000
    160 H         181.7030  161.1511   79.0564 H        12        0    0.0000
    161 H         180.5180  161.7322   80.2277 H        12        0    0.0000
    162 H         180.9819  158.9284   79.1700 H        12        0    0.0000
    163 H         178.3095  159.7376   80.2210 H        12        0    0.0000
    164 H         178.7137  158.9533   78.6982 H        12        0    0.0000
    165 H         180.3376  157.9022   81.2803 H        12        0    0.0000
    166 H         179.8388  159.4645   81.9647 H        12        0    0.0000
    167 H         182.6551  158.6203   81.0928 H        12        0    0.0000
    168 H         182.6644  158.1598   83.3883 H        12        0    0.0000
    169 H         181.3674  159.3004   83.7263 H        12        0    0.0000
    170 C         183.3283  160.2202   83.6382 C.3      13        0    0.0000
    171 C         183.5742  160.2058   85.1536 C.3      13        0    0.0000
    172 H         184.2764  159.9864   83.1371 H        13        0    0.0000
    173 H         183.0283  161.2163   83.2922 H        13        0    0.0000
    174 H         182.6319  160.1404   85.7101 H        13        0    0.0000
    175 H         184.1459  159.3011   85.3972 H        13        0    0.0000
    176 C         186.2743  160.3326   88.6433 C.3      14        0    0.0000
    177 C         186.0724  161.4431   87.6134 C.3      14        0    0.0000
    178 C         184.5918  161.3956   87.1982 C.3      14        0    0.0000
    179 C         184.4120  161.4246   85.6747 C.3      14        0    0.0000
    180 C         184.0376  160.1298   87.8701 C.3      14        0    0.0000
    181 C         184.8762  159.9601   89.1433 C.3      14        0    0.0000
    182 C         184.4321  160.8548   90.3149 C.3      14        0    0.0000
    183 H         186.7231  159.4639   88.1449 H        14        0    0.0000
    184 H         186.9565  160.6336   89.4446 H        14        0    0.0000
    185 H         186.7568  161.3094   86.7685 H        14        0    0.0000
    186 H         186.2981  162.4190   88.0593 H        14        0    0.0000
    187 H         184.0912  162.2716   87.6344 H        14        0    0.0000
    188 H         185.3882  161.4415   85.1762 H        14        0    0.0000
    189 H         183.8946  162.3482   85.3887 H        14        0    0.0000
    190 H         182.9644  160.2074   88.0696 H        14        0    0.0000
    191 H         184.1891  159.2570   87.2216 H        14        0    0.0000
    192 H         184.8664  158.9110   89.4656 H        14        0    0.0000
    193 H         184.1973  161.8687   89.9739 H        14        0    0.0000
    194 H         185.2579  160.9485   91.0306 H        14        0    0.0000
    195 C         183.2074  160.2640   91.0691 C.3      15        0    0.0000
    196 C         182.2253  161.3230   91.5901 C.3      15        0    0.0000
    197 H         182.6724  159.6261   90.3539 H        15        0    0.0000
    198 H         183.5523  159.6080   91.8770 H        15        0    0.0000
    199 H         182.7457  162.1078   92.1515 H        15        0    0.0000
    200 H         181.7610  161.8121   90.7241 H        15        0    0.0000
    201 C         179.3315  157.5051   92.2503 C.3      16        0    0.0000
    202 C         180.1342  158.5623   91.4936 C.3      16        0    0.0000
    203 C         181.0900  159.2043   92.5141 C.3      16        0    0.0000
    204 C         181.0584  160.7374   92.4585 C.3      16        0    0.0000
    205 C         180.6661  158.6181   93.8696 C.3      16        0    0.0000
    206 C         180.1077  157.2278   93.5404 C.3      16        0    0.0000
    207 C         181.1853  156.1473   93.3368 C.3      16        0    0.0000
    208 H         178.3475  157.9203   92.5030 H        16        0    0.0000
    209 H         179.1588  156.6090   91.6460 H        16        0    0.0000
    210 H         179.4618  159.2884   91.0237 H        16        0    0.0000
    211 H         180.7148  158.0941   90.6901 H        16        0    0.0000
    212 H         182.1082  158.8588   92.2858 H        16        0    0.0000
    213 H         181.1055  161.1562   93.4705 H        16        0    0.0000
    214 H         180.1059  161.0644   92.0246 H        16        0    0.0000
    215 H         181.4962  158.5900   94.5822 H        16        0    0.0000
    216 H         179.8701  159.2281   94.3162 H        16        0    0.0000
    217 H         179.4140  156.9030   94.3264 H        16        0    0.0000
    218 H         182.0951  156.5710   92.8981 H        16        0    0.0000
    219 H         180.8151  155.3977   92.6269 H        16        0    0.0000
    220 C         180.3651  158.4562   96.5668 C.3      17        0    0.0000
    221 C         181.2621  157.8037   95.5116 C.3      17        0    0.0000
    222 C         181.3614  156.3198   95.8889 C.3      17        0    0.0000
    223 C         181.5395  155.4185   94.6640 C.3      17        0    0.0000
    224 C         180.0723  156.0746   96.6801 C.3      17        0    0.0000
    225 C         179.9599  157.3394   97.5377 C.3      17        0    0.0000
    226 C         178.5762  157.5742   98.1500 C.3      17        0    0.0000
    227 H         180.8871  159.2632   97.0922 H        17        0    0.0000
    228 H         179.4896  158.9000   96.0777 H        17        0    0.0000
    229 H         182.2531  158.2695   95.4853 H        17        0    0.0000
    230 H         180.8143  157.9364   94.5194 H        17        0    0.0000
    231 H         182.2183  156.1954   96.5671 H        17        0    0.0000
    232 H         180.8905  154.5402   94.7634 H        17        0    0.0000
    233 H         182.5693  155.0462   94.6123 H        17        0    0.0000
    234 H         180.1343  155.1694   97.2925 H        17        0    0.0000
    235 H         179.2108  155.9781   96.0075 H        17        0    0.0000
    236 H         180.7140  157.2897   98.3367 H        17        0    0.0000
    237 H         177.8437  157.7892   97.3633 H        17        0    0.0000
    238 H         178.6124  158.4580   98.7983 H        17        0    0.0000
    239 C         179.4515  156.9342  102.3972 C.3      18        0    0.0000
    240 C         179.5561  157.2762  100.9089 C.3      18        0    0.0000
    241 C         179.0579  156.0409  100.1374 C.3      18        0    0.0000
    242 C         178.0896  156.3633   98.9926 C.3      18        0    0.0000
    243 C         178.4184  155.1531  101.2099 C.3      18        0    0.0000
    244 C         179.2451  155.4175  102.4728 C.3      18        0    0.0000
    245 C         180.5670  154.6265  102.4859 C.3      18        0    0.0000
    246 H         180.3204  157.2902  102.9589 H        18        0    0.0000
    247 H         178.5704  157.4383  102.8143 H        18        0    0.0000
    248 H         178.9741  158.1781  100.6898 H        18        0    0.0000
    249 H         180.5970  157.4888  100.6385 H        18        0    0.0000
    250 H         179.9322  155.5113   99.7327 H        18        0    0.0000
    251 H         178.0047  155.4918   98.3325 H        18        0    0.0000
    252 H         177.0860  156.5637   99.3849 H        18        0    0.0000
    253 H         178.4126  154.0978  100.9186 H        18        0    0.0000
    254 H         177.3774  155.4546  101.3844 H        18        0    0.0000
    255 H         178.6547  155.1568  103.3603 H        18        0    0.0000
    256 H         181.3852  155.2161  102.0577 H        18        0    0.0000
    257 H         180.4608  153.7299  101.8637 H        18        0    0.0000
    258 C         179.7841  150.8659  105.1282 C.3      19        0    0.0000
    259 C         179.8750  151.8321  103.9445 C.3      19        0    0.0000
    260 C         179.8942  153.2528  104.5365 C.3      19        0    0.0000
    261 C         180.9555  154.1748  103.9236 C.3      19        0    0.0000
    262 C         180.1054  153.0378  106.0387 C.3      19        0    0.0000
    263 C         179.3939  151.7151  106.3428 C.3      19        0    0.0000
    264 C         177.8709  151.8889  106.4960 C.3      19        0    0.0000
    265 H         179.0955  150.0396  104.9275 H        19        0    0.0000
    266 H         180.7741  150.4247  105.3008 H        19        0    0.0000
    267 H         180.7648  151.6085  103.3457 H        19        0    0.0000
    268 H         179.0049  151.7142  103.2882 H        19        0    0.0000
    269 H         178.9003  153.7000  104.3922 H        19        0    0.0000
    270 H         181.0669  155.0674  104.5506 H        19        0    0.0000
    271 H         181.9313  153.6760  103.9048 H        19        0    0.0000
    272 H         179.7198  153.8740  106.6308 H        19        0    0.0000
    273 H         181.1752  152.9378  106.2635 H        19        0    0.0000
    274 H         179.8059  151.2785  107.2615 H        19        0    0.0000
    275 H         177.3498  150.9322  106.3800 H        19        0    0.0000
    276 H         177.4991  152.5521  105.7059 H        19        0    0.0000
    277 C         177.4965  152.5157  107.8703 C.3      20        0    0.0000
    278 C         177.8483  154.0052  107.9933 C.3      20        0    0.0000
    279 H         176.4093  152.4125  107.9800 H        20        0    0.0000
    280 H         177.9500  151.9307  108.6791 H        20        0    0.0000
    281 H         177.3259  154.6022  107.2366 H        20        0    0.0000
    282 H         177.4955  154.3589  108.9705 H        20        0    0.0000
    283 C         179.8309  152.3099  104.8827 C.3      21        0    0.0000
    284 C         178.9954  153.3788  105.5855 C.3      21        0    0.0000
    285 C         179.9520  154.1459  106.5147 C.3      21        0    0.0000
    286 C         179.3865  154.3036  107.9323 C.3      21        0    0.0000
    287 C         181.2718  153.3618  106.4508 C.3      21        0    0.0000
    288 C         181.2915  152.7368  105.0501 C.3      21        0    0.0000
    289 C         181.7354  153.7014  103.9352 C.3      21        0    0.0000
    290 H         179.6754  151.3484  105.3886 H        21        0    0.0000
    291 H         179.5342  152.1768  103.8375 H        21        0    0.0000
    292 H         178.1584  152.9180  106.1215 H        21        0    0.0000
    293 H         178.5658  154.0686  104.8495 H        21        0    0.0000
    294 H         180.1153  155.1428  106.0815 H        21        0    0.0000
    295 H         179.5816  155.3140  108.3100 H        21        0    0.0000
    296 H         179.9011  153.6087  108.6068 H        21        0    0.0000
    297 H         182.1384  154.0002  106.6487 H        21        0    0.0000
    298 H         181.2756  152.5607  107.2014 H        21        0    0.0000
    299 H         181.9389  151.8507  105.0404 H        21        0    0.0000
    300 H         182.2694  154.5649  104.3462 H        21        0    0.0000
    301 H         180.8483  154.0957  103.4249 H        21        0    0.0000
    302 C         181.3585  149.8618  104.3014 C.3      22        0    0.0000
    303 C         181.0160  151.1191  103.5037 C.3      22        0    0.0000
    304 C         182.2856  151.5079  102.7266 C.3      22        0    0.0000
    305 C         182.6268  152.9966  102.8739 C.3      22        0    0.0000
    306 C         183.3736  150.5609  103.2561 C.3      22        0    0.0000
    307 C         182.6234  149.2853  103.6599 C.3      22        0    0.0000
    308 C         182.2907  148.3500  102.4831 C.3      22        0    0.0000
    309 H         181.5776  150.1479  105.3381 H        22        0    0.0000
    310 H         180.5248  149.1533  104.3310 H        22        0    0.0000
    311 H         180.6660  151.9126  104.1731 H        22        0    0.0000
    312 H         180.2027  150.9107  102.7986 H        22        0    0.0000
    313 H         182.1126  151.2837  101.6645 H        22        0    0.0000
    314 H         182.5262  153.5076  101.9094 H        22        0    0.0000
    315 H         183.6752  153.0993  103.1788 H        22        0    0.0000
    316 H         184.1580  150.3815  102.5144 H        22        0    0.0000
    317 H         183.8537  150.9913  104.1446 H        22        0    0.0000
    318 H         183.1988  148.7300  104.4116 H        22        0    0.0000
    319 H         183.0482  148.4182  101.6948 H        22        0    0.0000
    320 H         181.3406  148.6612  102.0322 H        22        0    0.0000
    321 C         180.8868  144.9133  105.8282 C.3      23        0    0.0000
    322 C         180.5309  145.6364  104.5269 C.3      23        0    0.0000
    323 C         181.5651  146.7630  104.3524 C.3      23        0    0.0000
    324 C         182.1452  146.8698  102.9367 C.3      23        0    0.0000
    325 C         182.6395  146.4612  105.4020 C.3      23        0    0.0000
    326 C         181.8732  145.8248  106.5666 C.3      23        0    0.0000
    327 C         181.1789  146.8736  107.4559 C.3      23        0    0.0000
    328 H         179.9958  144.6623  106.4116 H        23        0    0.0000
    329 H         181.3865  143.9677  105.5815 H        23        0    0.0000
    330 H         180.5295  144.9268  103.6922 H        23        0    0.0000
    331 H         179.5231  146.0630  104.5910 H        23        0    0.0000
    332 H         181.0856  147.7157  104.6191 H        23        0    0.0000
    333 H         183.1357  146.3998  102.9138 H        23        0    0.0000
    334 H         181.5177  146.3231  102.2235 H        23        0    0.0000
    335 H         183.1896  147.3609  105.6962 H        23        0    0.0000
    336 H         183.3681  145.7415  105.0068 H        23        0    0.0000
    337 H         182.5616  145.2265  107.1769 H        23        0    0.0000
    338 H         180.1492  147.0522  107.1269 H        23        0    0.0000
    339 H         181.7099  147.8294  107.3737 H        23        0    0.0000
    340 C         179.7032  149.0174  111.3373 C.3      24        0    0.0000
    341 C         180.6059  148.6682  110.1624 C.3      24        0    0.0000
    342 C         180.1895  147.2324  109.8265 C.3      24        0    0.0000
    343 C         181.1745  146.4493  108.9532 C.3      24        0    0.0000
    344 C         179.8409  146.5837  111.1805 C.3      24        0    0.0000
    345 C         179.7435  147.7447  112.1895 C.3      24        0    0.0000
    346 C         178.6322  147.6186  113.2359 C.3      24        0    0.0000
    347 H         180.0666  149.8916  111.8864 H        24        0    0.0000
    348 H         178.6933  149.2389  110.9749 H        24        0    0.0000
    349 H         180.4582  149.3475  109.3173 H        24        0    0.0000
    350 H         181.6554  148.7315  110.4705 H        24        0    0.0000
    351 H         179.2504  147.2978  109.2565 H        24        0    0.0000
    352 H         182.1866  146.5719  109.3569 H        24        0    0.0000
    353 H         180.9378  145.3806  109.0157 H        24        0    0.0000
    354 H         180.5989  145.8684  111.5175 H        24        0    0.0000
    355 H         178.9056  146.0213  111.0869 H        24        0    0.0000
    356 H         180.6941  147.7620  112.7438 H        24        0    0.0000
    357 H         178.8237  148.3290  114.0489 H        24        0    0.0000
    358 H         177.6776  147.9095  112.7818 H        24        0    0.0000
    359 C         175.3108  146.1884  115.8855 C.3      25        0    0.0000
    360 C         176.1491  146.6813  114.7159 C.3      25        0    0.0000
    361 C         177.5482  146.1632  115.0548 C.3      25        0    0.0000
    362 C         178.4832  146.1913  113.8431 C.3      25        0    0.0000
    363 C         177.2887  144.7610  115.6355 C.3      25        0    0.0000
    364 C         175.8235  144.7615  116.1180 C.3      25        0    0.0000
    365 C         175.5950  144.2050  117.5290 C.3      25        0    0.0000
    366 H         174.2405  146.2061  115.6572 H        25        0    0.0000
    367 H         175.4786  146.8344  116.7541 H        25        0    0.0000
    368 H         175.7830  146.2479  113.7772 H        25        0    0.0000
    369 H         176.1225  147.7713  114.6235 H        25        0    0.0000
    370 H         177.9647  146.7937  115.8539 H        25        0    0.0000
    371 H         179.4737  145.8117  114.1208 H        25        0    0.0000
    372 H         178.0941  145.5185  113.0696 H        25        0    0.0000
    373 H         177.4118  143.9853  114.8695 H        25        0    0.0000
    374 H         178.0036  144.5347  116.4335 H        25        0    0.0000
    375 H         175.2674  144.1048  115.4325 H        25        0    0.0000
    376 H         175.7147  143.1153  117.5081 H        25        0    0.0000
    377 H         174.5576  144.4013  117.8252 H        25        0    0.0000
    378 C         174.9872  144.5111  121.9710 C.3      26        0    0.0000
    379 C         176.1537  145.0652  121.1495 C.3      26        0    0.0000
    380 C         176.3580  144.0998  119.9682 C.3      26        0    0.0000
    381 C         176.5423  144.7945  118.6134 C.3      26        0    0.0000
    382 C         175.1222  143.1947  119.9966 C.3      26        0    0.0000
    383 C         174.7653  143.0756  121.4821 C.3      26        0    0.0000
    384 C         175.6423  142.0436  122.2162 C.3      26        0    0.0000
    385 H         175.1737  144.5874  123.0464 H        26        0    0.0000
    386 H         174.0903  145.1065  121.7571 H        26        0    0.0000
    387 H         175.9332  146.0894  120.8289 H        26        0    0.0000
    388 H         177.0642  145.1056  121.7588 H        26        0    0.0000
    389 H         177.2406  143.4790  120.1788 H        26        0    0.0000
    390 H         176.3250  145.8638  118.7211 H        26        0    0.0000
    391 H         177.5833  144.7138  118.2801 H        26        0    0.0000
    392 H         175.3134  142.2248  119.5261 H        26        0    0.0000
    393 H         174.2907  143.6665  119.4572 H        26        0    0.0000
    394 H         173.7090  142.7966  121.5854 H        26        0    0.0000
    395 H         176.5233  142.5186  122.6619 H        26        0    0.0000
    396 H         176.0099  141.3016  121.4975 H        26        0    0.0000
    397 C         174.8468  141.2928  123.3232 C.3      27        0    0.0000
    398 C         175.1214  141.8045  124.7445 C.3      27        0    0.0000
    399 H         173.7817  141.4451  123.1063 H        27        0    0.0000
    400 H         175.0317  140.2151  123.2445 H        27        0    0.0000
    401 H         175.9498  141.2591  125.2117 H        27        0    0.0000
    402 H         175.4366  142.8534  124.6738 H        27        0    0.0000
    403 C         171.7151  138.7092  126.2703 C.3      28        0    0.0000
    404 C         173.0753  139.3878  126.3249 C.3      28        0    0.0000
    405 C         172.9024  140.6108  125.4153 C.3      28        0    0.0000
    406 C         173.8685  141.7710  125.6868 C.3      28        0    0.0000
    407 C         171.4034  140.9692  125.4786 C.3      28        0    0.0000
    408 C         170.7412  139.8866  126.3504 C.3      28        0    0.0000
    409 C         169.3256  139.4949  125.9195 C.3      28        0    0.0000
    410 H         171.6003  138.1640  125.3255 H        28        0    0.0000
    411 H         171.5772  138.0013  127.0933 H        28        0    0.0000
    412 H         173.3022  139.6704  127.3585 H        28        0    0.0000
    413 H         173.8754  138.7279  125.9750 H        28        0    0.0000
    414 H         173.1017  140.2765  124.3862 H        28        0    0.0000
    415 H         173.3256  142.7179  125.5824 H        28        0    0.0000
    416 H         174.2091  141.7174  126.7277 H        28        0    0.0000
    417 H         170.9924  140.9657  124.4613 H        28        0    0.0000
    418 H         171.2171  141.9659  125.8921 H        28        0    0.0000
    419 H         170.7217  140.2472  127.3892 H        28        0    0.0000
    420 H         169.1663  139.7521  124.8656 H        28        0    0.0000
    421 H         169.2106  138.4074  125.9989 H        28        0    0.0000
    422 C         167.6053  138.6268  130.1979 C.3      29        0    0.0000
    423 C         167.7858  138.4833  128.6932 C.3      29        0    0.0000
    424 C         168.3185  139.8593  128.2802 C.3      29        0    0.0000
    425 C         168.2288  140.1771  126.7845 C.3      29        0    0.0000
    426 C         167.6176  140.8634  129.2160 C.3      29        0    0.0000
    427 C         166.9792  140.0184  130.3358 C.3      29        0    0.0000
    428 C         167.0376  140.6295  131.7392 C.3      29        0    0.0000
    429 H         166.9610  137.8434  130.6089 H        29        0    0.0000
    430 H         168.5793  138.5620  130.6953 H        29        0    0.0000
    431 H         168.4836  137.6792  128.4400 H        29        0    0.0000
    432 H         166.8216  138.2570  128.2248 H        29        0    0.0000
    433 H         169.3877  139.8785  128.5401 H        29        0    0.0000
    434 H         167.2445  139.8700  126.4116 H        29        0    0.0000
    435 H         168.2942  141.2626  126.6442 H        29        0    0.0000
    436 H         166.8410  141.4467  128.7097 H        29        0    0.0000
    437 H         168.3500  141.5855  129.5926 H        29        0    0.0000
    438 H         165.9128  139.9147  130.0844 H        29        0    0.0000
    439 H         166.8817  139.8376  132.4813 H        29        0    0.0000
    440 H         168.0428  141.0312  131.9136 H        29        0    0.0000
    441 C         162.9132  139.5894  132.1066 C.3      30        0    0.0000
    442 C         164.4136  139.7755  131.9403 C.3      30        0    0.0000
    443 C         164.5551  141.2903  131.7775 C.3      30        0    0.0000
    444 C         165.9961  141.7614  131.9886 C.3      30        0    0.0000
    445 C         163.5369  141.8629  132.7806 C.3      30        0    0.0000
    446 C         162.5100  140.7406  133.0366 C.3      30        0    0.0000
    447 C         161.0380  141.1643  132.9546 C.3      30        0    0.0000
    448 H         162.6677  138.6126  132.5350 H        30        0    0.0000
    449 H         162.4252  139.6582  131.1283 H        30        0    0.0000
    450 H         164.9414  139.4225  132.8347 H        30        0    0.0000
    451 H         164.8009  139.2283  131.0754 H        30        0    0.0000
    452 H         164.2261  141.5598  130.7633 H        30        0    0.0000
    453 H         166.2178  142.6081  131.3283 H        30        0    0.0000
    454 H         166.1113  142.1254  133.0165 H        30        0    0.0000
    455 H         164.0203  142.1274  133.7293 H        30        0    0.0000
    456 H         163.0830  142.7796  132.3899 H        30        0    0.0000
    457 H         162.6752  140.3936  134.0675 H        30        0    0.0000
    458 H         160.4350  140.3048  132.6383 H        30        0    0.0000
    459 H         160.9304  141.9274  132.1746 H        30        0    0.0000
    460 C         161.7637  139.1000  136.6814 C.3      31        0    0.0000
    461 C         161.4270  139.5310  135.2622 C.3      31        0    0.0000
    462 C         160.5142  140.7471  135.4639 C.3      31        0    0.0000
    463 C         160.4558  141.7254  134.2838 C.3      31        0    0.0000
    464 C         160.9329  141.3635  136.8145 C.3      31        0    0.0000
    465 C         162.0124  140.4310  137.3939 C.3      31        0    0.0000
    466 C         161.9814  140.2847  138.9173 C.3      31        0    0.0000
    467 H         160.9163  138.5648  137.1269 H        31        0    0.0000
    468 H         162.6387  138.4436  136.7135 H        31        0    0.0000
    469 H         162.3487  139.7899  134.7298 H        31        0    0.0000
    470 H         160.9288  138.7345  134.7007 H        31        0    0.0000
    471 H         159.4920  140.3627  135.5980 H        31        0    0.0000
    472 H         159.4123  142.0167  134.1144 H        31        0    0.0000
    473 H         160.9980  142.6405  134.5499 H        31        0    0.0000
    474 H         160.0559  141.4119  137.4719 H        31        0    0.0000
    475 H         161.3149  142.3855  136.7203 H        31        0    0.0000
    476 H         162.9965  140.8100  137.0819 H        31        0    0.0000
    477 H         162.5148  139.3762  139.2210 H        31        0    0.0000
    478 H         162.5128  141.1287  139.3732 H        31        0    0.0000
    479 C         160.5341  140.2422  139.4830 C.3      32        0    0.0000
    480 C         160.4549  139.8488  140.9651 C.3      32        0    0.0000
    481 H         160.1226  141.2541  139.3769 H        32        0    0.0000
    482 H         159.9140  139.5850  138.8622 H        32        0    0.0000
    483 H         161.0887  138.9809  141.1818 H        32        0    0.0000
    484 H         160.8499  140.6821  141.5601 H        32        0    0.0000
    485 C         159.6648  137.1140  144.1120 C.3      33        0    0.0000
    486 C         160.1937  138.3299  143.3528 C.3      33        0    0.0000
    487 C         158.9671  139.1685  142.9537 C.3      33        0    0.0000
    488 C         158.9971  139.5791  141.4756 C.3      33        0    0.0000
    489 C         157.7585  138.3011  143.3381 C.3      33        0    0.0000
    490 C         158.2362  137.4673  144.5338 C.3      33        0    0.0000
    491 C         158.2071  138.2177  145.8778 C.3      33        0    0.0000
    492 H         159.6380  136.2542  143.4305 H        33        0    0.0000
    493 H         160.3108  136.8405  144.9522 H        33        0    0.0000
    494 H         160.7914  138.0120  142.4915 H        33        0    0.0000
    495 H         160.8506  138.9239  143.9990 H        33        0    0.0000
    496 H         158.9608  140.0740  143.5767 H        33        0    0.0000
    497 H         158.3792  140.4702  141.3152 H        33        0    0.0000
    498 H         158.5601  138.7774  140.8682 H        33        0    0.0000
    499 H         156.8741  138.9055  143.5617 H        33        0    0.0000
    500 H         157.4956  137.6269  142.5125 H        33        0    0.0000
    501 H         157.6386  136.5507  144.6186 H        33        0    0.0000
    502 H         157.4807  139.0373  145.8598 H        33        0    0.0000
    503 H         159.1885  138.6730  146.0581 H        33        0    0.0000
    504 C         154.8651  135.1429  146.3236 C.3      34        0    0.0000
    505 C         156.1720  135.8025  145.9106 C.3      34        0    0.0000
    506 C         156.4419  136.7770  147.0589 C.3      34        0    0.0000
    507 C         157.8910  137.2698  147.0692 C.3      34        0    0.0000
    508 C         156.0205  135.9900  148.3134 C.3      34        0    0.0000
    509 C         155.0470  134.8969  147.8267 C.3      34        0    0.0000
    510 C         153.7474  134.7672  148.6313 C.3      34        0    0.0000
    511 H         154.6862  134.2124  145.7757 H        34        0    0.0000
    512 H         154.0307  135.8208  146.1138 H        34        0    0.0000
    513 H         156.9681  135.0520  145.8329 H        34        0    0.0000
    514 H         156.0866  136.3127  144.9463 H        34        0    0.0000
    515 H         155.7635  137.6355  146.9486 H        34        0    0.0000
    516 H         158.1075  137.7884  148.0106 H        34        0    0.0000
    517 H         158.5672  136.4078  147.0221 H        34        0    0.0000
    518 H         156.8848  135.5114  148.7905 H        34        0    0.0000
    519 H         155.5774  136.6590  149.0587 H        34        0    0.0000
    520 H         155.5742  133.9372  147.9336 H        34        0    0.0000
    521 H         153.2960  133.7890  148.4274 H        34        0    0.0000
    522 H         153.0341  135.5219  148.2789 H        34        0    0.0000
    523 C         152.3383  132.0607  152.0350 C.3      35        0    0.0000
    524 C         152.8483  132.6923  150.7370 C.3      35        0    0.0000
    525 C         152.8284  134.2102  150.9599 C.3      35        0    0.0000
    526 C         153.9245  134.9291  150.1684 C.3      35        0    0.0000
    527 C         152.9501  134.3403  152.4818 C.3      35        0    0.0000
    528 C         152.0315  133.2233  152.9881 C.3      35        0    0.0000
    529 C         152.2396  132.8425  154.4565 C.3      35        0    0.0000
    530 H         151.4457  131.4507  151.8594 H        35        0    0.0000
    531 H         153.1092  131.3977  152.4457 H        35        0    0.0000
    532 H         152.2223  132.4126  149.8828 H        35        0    0.0000
    533 H         153.8624  132.3305  150.5288 H        35        0    0.0000
    534 H         151.8424  134.5887  150.6532 H        35        0    0.0000
    535 H         154.9022  134.5213  150.4516 H        35        0    0.0000
    536 H         153.9408  135.9951  150.4236 H        35        0    0.0000
    537 H         152.6291  135.3254  152.8350 H        35        0    0.0000
    538 H         153.9847  134.1766  152.8087 H        35        0    0.0000
    539 H         150.9871  133.5294  152.8300 H        35        0    0.0000
    540 H         151.6315  131.9668  154.7121 H        35        0    0.0000
    541 H         151.8950  133.6641  155.0958 H        35        0    0.0000
    542 C         155.2399  130.2932  157.4438 C.3      36        0    0.0000
    543 C         155.3950  131.3720  156.3809 C.3      36        0    0.0000
    544 C         153.9457  131.7740  156.0881 C.3      36        0    0.0000
    545 C         153.7294  132.5515  154.7862 C.3      36        0    0.0000
    546 C         153.1278  130.4755  156.2303 C.3      36        0    0.0000
    547 C         154.0639  129.4630  156.9190 C.3      36        0    0.0000
    548 C         153.3990  128.5420  157.9465 C.3      36        0    0.0000
    549 H         156.1492  129.6943  157.5541 H        36        0    0.0000
    550 H         155.0181  130.7564  158.4115 H        36        0    0.0000
    551 H         155.9915  132.2165  156.7396 H        36        0    0.0000
    552 H         155.8929  130.9539  155.4992 H        36        0    0.0000
    553 H         153.6278  132.4388  156.9055 H        36        0    0.0000
    554 H         154.2699  133.5037  154.8438 H        36        0    0.0000
    555 H         154.1706  131.9886  153.9551 H        36        0    0.0000
    556 H         152.7980  130.0723  155.2668 H        36        0    0.0000
    557 H         152.2193  130.6766  156.8081 H        36        0    0.0000
    558 H         154.4620  128.8113  156.1266 H        36        0    0.0000
    559 H         153.2000  127.5699  157.4800 H        36        0    0.0000
    560 H         154.0996  128.3588  158.7698 H        36        0    0.0000
    561 C         152.2679  129.4263  162.2272 C.3      37        0    0.0000
    562 C         152.9447  128.9093  160.9553 C.3      37        0    0.0000
    563 C         151.8178  128.5816  159.9593 C.3      37        0    0.0000
    564 C         152.0674  129.0961  158.5363 C.3      37        0    0.0000
    565 C         150.5619  129.1929  160.5888 C.3      37        0    0.0000
    566 C         150.7848  129.0621  162.0993 C.3      37        0    0.0000
    567 C         150.4612  127.6492  162.6208 C.3      37        0    0.0000
    568 H         152.7432  129.0321  163.1305 H        37        0    0.0000
    569 H         152.3684  130.5187  162.2617 H        37        0    0.0000
    570 H         153.6461  129.6589  160.5728 H        37        0    0.0000
    571 H         153.5242  128.0044  161.1724 H        37        0    0.0000
    572 H         151.6888  127.4901  159.9314 H        37        0    0.0000
    573 H         151.2418  128.7821  157.8866 H        37        0    0.0000
    574 H         152.0833  130.1920  158.5226 H        37        0    0.0000
    575 H         149.6485  128.6940  160.2490 H        37        0    0.0000
    576 H         150.4788  130.2544  160.3219 H        37        0    0.0000
    577 H         150.1647  129.7973  162.6278 H        37        0    0.0000
    578 H         151.2912  126.9588  162.4343 H        37        0    0.0000
    579 H         149.5909  127.2535  162.0838 H        37        0    0.0000
    580 C         150.1324  124.1536  165.5839 C.3      38        0    0.0000
    581 C         150.5660  125.1273  164.4988 C.3      38        0    0.0000
    582 C         149.6158  126.3171  164.6842 C.3      38        0    0.0000
    583 C         150.1295  127.6566  164.1413 C.3      38        0    0.0000
    584 C         149.2285  126.3129  166.1774 C.3      38        0    0.0000
    585 C         149.8947  125.0665  166.7885 C.3      38        0    0.0000
    586 C         149.0781  124.3761  167.8837 C.3      38        0    0.0000
    587 H         149.2091  123.6411  165.2873 H        38        0    0.0000
    588 H         150.8962  123.3957  165.7832 H        38        0    0.0000
    589 H         151.6135  125.4068  164.6551 H        38        0    0.0000
    590 H         150.4821  124.6890  163.4993 H        38        0    0.0000
    591 H         148.6987  126.0864  164.1218 H        38        0    0.0000
    592 H         149.3762  128.4303  164.3323 H        38        0    0.0000
    593 H         151.0275  127.9484  164.6987 H        38        0    0.0000
    594 H         148.1359  126.2608  166.2625 H        38        0    0.0000
    595 H         149.5447  127.2185  166.7057 H        38        0    0.0000
    596 H         150.8730  125.3642  167.1932 H        38        0    0.0000
    597 H         149.7418  123.8221  168.5580 H        38        0    0.0000
    598 H         148.5736  125.1357  168.4927 H        38        0    0.0000
    599 C         146.9661  120.9392  170.0044 C.3      39        0    0.0000
    600 C         148.0064  121.8647  169.3891 C.3      39        0    0.0000
    601 C         147.1897  122.6686  168.3721 C.3      39        0    0.0000
    602 C         148.0079  123.4067  167.3080 C.3      39        0    0.0000
    603 C         146.1318  121.6858  167.8334 C.3      39        0    0.0000
    604 C         146.1587  120.4756  168.7874 C.3      39        0    0.0000
    605 C         144.7955  119.8519  169.1016 C.3      39        0    0.0000
    606 H         147.4276  120.1008  170.5353 H        39        0    0.0000
    607 H         146.3509  121.4971  170.7188 H        39        0    0.0000
    608 H         148.4763  122.5078  170.1396 H        39        0    0.0000
    609 H         148.7924  121.2710  168.9095 H        39        0    0.0000
    610 H         146.6455  123.4396  168.9381 H        39        0    0.0000
    611 H         148.5076  122.6711  166.6667 H        39        0    0.0000
    612 H         147.3274  123.9758  166.6636 H        39        0    0.0000
    613 H         146.3424  121.3513  166.8118 H        39        0    0.0000
    614 H         145.1552  122.1807  167.8011 H        39        0    0.0000
    615 H         146.7526  119.6941  168.2896 H        39        0    0.0000
    616 H         144.9401  118.9902  169.7640 H        39        0    0.0000
    617 H         144.1887  120.5774  169.6563 H        39        0    0.0000
    618 C         146.7020  118.2073  165.5949 C.3      40        0    0.0000
    619 C         146.3234  119.1261  166.7591 C.3      40        0    0.0000
    620 C         144.8403  119.4908  166.5676 C.3      40        0    0.0000
    621 C         143.9981  119.3893  167.8453 C.3      40        0    0.0000
    622 C         144.3519  118.5404  165.4697 C.3      40        0    0.0000
    623 C         145.5727  118.3344  164.5666 C.3      40        0    0.0000
    624 C         145.7789  119.5013  163.5822 C.3      40        0    0.0000
    625 H         147.6924  118.4439  165.1946 H        40        0    0.0000
    626 H         146.7414  117.1729  165.9598 H        40        0    0.0000
    627 H         146.5183  118.6229  167.7125 H        40        0    0.0000
    628 H         146.9354  120.0355  166.7419 H        40        0    0.0000
    629 H         144.7851  120.5179  166.1793 H        40        0    0.0000
    630 H         143.1085  120.0225  167.7451 H        40        0    0.0000
    631 H         143.6426  118.3624  167.9889 H        40        0    0.0000
    632 H         143.4883  118.9446  164.9317 H        40        0    0.0000
    633 H         144.0514  117.5779  165.9036 H        40        0    0.0000
    634 H         145.4612  117.3982  164.0050 H        40        0    0.0000
    635 H         146.8109  119.5322  163.2157 H        40        0    0.0000
    636 H         145.5960  120.4506  164.0997 H        40        0    0.0000
    637 C         141.5891  117.8139  161.4392 C.3      41        0    0.0000
    638 C         142.2720  119.0341  162.0618 C.3      41        0    0.0000
    639 C         143.5888  118.5330  162.6817 C.3      41        0    0.0000
    640 C         144.8049  119.4144  162.3715 C.3      41        0    0.0000
    641 C         143.7476  117.1084  162.1411 C.3      41        0    0.0000
    642 C         142.3135  116.5863  162.0022 C.3      41        0    0.0000
    643 C         141.7319  116.1027  163.3442 C.3      41        0    0.0000
    644 H         140.5105  117.8130  161.6229 H        41        0    0.0000
    645 H         141.7301  117.8471  160.3513 H        41        0    0.0000
    646 H         142.4269  119.8063  161.3001 H        41        0    0.0000
    647 H         141.6365  119.4708  162.8410 H        41        0    0.0000
    648 H         143.4556  118.4717  163.7713 H        41        0    0.0000
    649 H         145.3489  118.9949  161.5168 H        41        0    0.0000
    650 H         144.4839  120.4213  162.0806 H        41        0    0.0000
    651 H         144.3647  116.4869  162.7980 H        41        0    0.0000
    652 H         144.2277  117.1257  161.1540 H        41        0    0.0000
    653 H         142.2901  115.7636  161.2764 H        41        0    0.0000
    654 H         141.8970  116.8415  164.1363 H        41        0    0.0000
    655 H         142.2448  115.1842  163.6533 H        41        0    0.0000
    656 C         140.7161  114.0833  166.4442 C.3      42        0    0.0000
    657 C         140.5803  115.4303  165.7359 C.3      42        0    0.0000
    658 C         139.6448  115.2050  164.5355 C.3      42        0    0.0000
    659 C         140.2102  115.7947  163.2367 C.3      42        0    0.0000
    660 C         139.4264  113.6849  164.4898 C.3      42        0    0.0000
    661 C         139.5497  113.2250  165.9480 C.3      42        0    0.0000
    662 C         138.2794  113.4475  166.7890 C.3      42        0    0.0000
    663 H         141.6622  113.6169  166.1412 H        42        0    0.0000
    664 H         140.7434  114.1917  167.5330 H        42        0    0.0000
    665 H         141.5657  115.8092  165.4435 H        42        0    0.0000
    666 H         140.1383  116.1713  166.4125 H        42        0    0.0000
    667 H         138.6846  115.6904  164.7607 H        42        0    0.0000
    668 H         139.6673  116.7074  162.9648 H        42        0    0.0000
    669 H         140.0583  115.0805  162.4185 H        42        0    0.0000
    670 H         138.4660  113.4217  164.0360 H        42        0    0.0000
    671 H         140.2138  113.2047  163.8943 H        42        0    0.0000
    672 H         139.8283  112.1642  165.9878 H        42        0    0.0000
    673 H         137.3841  113.4700  166.1584 H        42        0    0.0000
    674 H         138.3397  114.4253  167.2821 H        42        0    0.0000
    675 C         138.1112  112.3633  167.8909 C.3      43        0    0.0000
    676 C         137.5676  112.9045  169.2209 C.3      43        0    0.0000
    677 H         137.3945  111.6273  167.5044 H        43        0    0.0000
    678 H         139.0594  111.8320  168.0341 H        43        0    0.0000
    679 H         137.7189  113.9873  169.3026 H        43        0    0.0000
    680 H         136.4831  112.7370  169.2388 H        43        0    0.0000
    681 C         137.7613  114.4662  173.5062 C.3      44        0    0.0000
    682 C         137.9254  114.2780  172.0045 C.3      44        0    0.0000
    683 C         137.6779  112.7774  171.8191 C.3      44        0    0.0000
    684 C         138.1567  112.1917  170.4872 C.3      44        0    0.0000
    685 C         138.2553  112.1117  173.0835 C.3      44        0    0.0000
    686 C         138.5026  113.2567  174.0851 C.3      44        0    0.0000
    687 C         138.1895  112.9327  175.5491 C.3      44        0    0.0000
    688 H         138.1893  115.4134  173.8487 H        44        0    0.0000
    689 H         136.6970  114.4602  173.7657 H        44        0    0.0000
    690 H         137.2141  114.8854  171.4362 H        44        0    0.0000
    691 H         138.9378  114.5691  171.7035 H        44        0    0.0000
    692 H         136.5882  112.6273  171.8526 H        44        0    0.0000
    693 H         139.2510  112.2460  170.4449 H        44        0    0.0000
    694 H         137.8923  111.1283  170.4476 H        44        0    0.0000
    695 H         139.1950  111.5816  172.8943 H        44        0    0.0000
    696 H         137.5487  111.3634  173.4584 H        44        0    0.0000
    697 H         139.5772  113.4896  174.0396 H        44        0    0.0000
    698 H         137.9888  111.8588  175.6430 H        44        0    0.0000
    699 H         139.0756  113.1421  176.1599 H        44        0    0.0000
    700 C         138.1208  115.8121  179.0597 C.3      45        0    0.0000
    701 C         138.4269  114.9262  177.8492 C.3      45        0    0.0000
    702 C         137.1742  114.0725  177.6125 C.3      45        0    0.0000
    703 C         136.9799  113.7212  176.1349 C.3      45        0    0.0000
    704 C         136.0534  114.9231  178.2194 C.3      45        0    0.0000
    705 C         136.6958  115.4567  179.5041 C.3      45        0    0.0000
    706 C         135.9686  116.6478  180.1340 C.3      45        0    0.0000
    707 H         138.8383  115.6443  179.8701 H        45        0    0.0000
    708 H         138.1994  116.8667  178.7695 H        45        0    0.0000
    709 H         139.3044  114.2952  178.0268 H        45        0    0.0000
    710 H         138.6515  115.5583  176.9818 H        45        0    0.0000
    711 H         137.2723  113.1493  178.2022 H        45        0    0.0000
    712 H         136.8527  114.6445  175.5571 H        45        0    0.0000
    713 H         136.0630  113.1355  176.0007 H        45        0    0.0000
    714 H         135.1565  114.3305  178.4262 H        45        0    0.0000
    715 H         135.7765  115.7453  177.5477 H        45        0    0.0000
    716 H         136.7590  114.6350  180.2322 H        45        0    0.0000
    717 H         135.5356  117.2849  179.3540 H        45        0    0.0000
    718 H         136.6912  117.2650  180.6812 H        45        0    0.0000
    719 C         132.7999  113.1949  180.0783 C.3      46        0    0.0000
    720 C         134.1304  113.9315  180.1051 C.3      46        0    0.0000
    721 C         133.7382  115.3667  180.4780 C.3      46        0    0.0000
    722 C         134.8518  116.2048  181.1187 C.3      46        0    0.0000
    723 C         132.4428  115.2432  181.3064 C.3      46        0    0.0000
    724 C         132.0774  113.7476  181.3085 C.3      46        0    0.0000
    725 C         130.5752  113.4555  181.2753 C.3      46        0    0.0000
    726 H         132.2528  113.4326  179.1578 H        46        0    0.0000
    727 H         132.9314  112.1097  180.1283 H        46        0    0.0000
    728 H         134.7867  113.4747  180.8538 H        46        0    0.0000
    729 H         134.6424  113.8855  179.1387 H        46        0    0.0000
    730 H         133.4649  115.8782  179.5430 H        46        0    0.0000
    731 H         134.4080  117.0995  181.5714 H        46        0    0.0000
    732 H         135.3062  115.6320  181.9357 H        46        0    0.0000
    733 H         131.6567  115.8431  180.8310 H        46        0    0.0000
    734 H         132.5505  115.6163  182.3303 H        46        0    0.0000
    735 H         132.5206  113.2874  182.2037 H        46        0    0.0000
    736 H         130.1650  113.6952  180.2871 H        46        0    0.0000
    737 H         130.4111  112.3827  181.4322 H        46        0    0.0000
    738 C         128.2943  111.5414  184.5745 C.3      47        0    0.0000
    739 C         129.0147  111.9584  183.2999 C.3      47        0    0.0000
    740 C         129.4036  113.4123  183.5873 C.3      47        0    0.0000
    741 C         129.7901  114.2443  182.3607 C.3      47        0    0.0000
    742 C         128.2511  113.9799  184.4388 C.3      47        0    0.0000
    743 C         127.4218  112.7611  184.8886 C.3      47        0    0.0000
    744 C         126.8731  112.8266  186.3172 C.3      47        0    0.0000
    745 H         127.6977  110.6355  184.4291 H        47        0    0.0000
    746 H         129.0262  111.3435  185.3653 H        47        0    0.0000
    747 H         129.8887  111.3307  183.1003 H        47        0    0.0000
    748 H         128.3337  111.8751  182.4458 H        47        0    0.0000
    749 H         130.2914  113.3825  184.2370 H        47        0    0.0000
    750 H         128.8812  114.6575  181.9075 H        47        0    0.0000
    751 H         130.3973  115.0982  182.6837 H        47        0    0.0000
    752 H         127.6112  114.6725  183.8816 H        47        0    0.0000
    753 H         128.6628  114.5484  185.2797 H        47        0    0.0000
    754 H         126.5488  112.7092  184.2206 H        47        0    0.0000
    755 H         126.7781  111.8078  186.7112 H        47        0    0.0000
    756 H         127.5978  113.3451  186.9560 H        47        0    0.0000
    757 C         122.9986  110.8993  187.5091 C.3      48        0    0.0000
    758 C         124.4356  111.3113  187.2283 C.3      48        0    0.0000
    759 C         124.2856  112.5982  186.4070 C.3      48        0    0.0000
    760 C         125.4944  113.5419  186.4414 C.3      48        0    0.0000
    761 C         122.9461  113.2219  186.8500 C.3      48        0    0.0000
    762 C         122.3206  112.2288  187.8466 C.3      48        0    0.0000
    763 C         120.7945  112.1314  187.7808 C.3      48        0    0.0000
    764 H         122.5531  110.4430  186.6167 H        48        0    0.0000
    765 H         122.9319  110.1802  188.3313 H        48        0    0.0000
    766 H         124.9586  111.4840  188.1751 H        48        0    0.0000
    767 H         124.9826  110.5378  186.6801 H        48        0    0.0000
    768 H         124.1587  112.2959  185.3568 H        48        0    0.0000
    769 H         125.4015  114.2688  185.6257 H        48        0    0.0000
    770 H         125.4751  114.1148  187.3761 H        48        0    0.0000
    771 H         122.3062  113.3559  185.9689 H        48        0    0.0000
    772 H         123.0630  114.2089  187.3097 H        48        0    0.0000
    773 H         122.6258  112.5230  188.8613 H        48        0    0.0000
    774 H         120.4358  112.4694  186.8013 H        48        0    0.0000
    775 H         120.4938  111.0817  187.8807 H        48        0    0.0000
    776 C         119.4170  110.2650  190.6452 C.3      49        0    0.0000
    777 C         118.8982  110.7561  189.2910 C.3      49        0    0.0000
    778 C         118.8019  112.2826  189.3875 C.3      49        0    0.0000
    779 C         120.0955  112.9590  188.8956 C.3      49        0    0.0000
    780 C         118.5025  112.4920  190.8773 C.3      49        0    0.0000
    781 C         119.3988  111.4771  191.5913 C.3      49        0    0.0000
    782 C         118.9121  111.1669  193.0114 C.3      49        0    0.0000
    783 H         118.7886  109.4428  191.0060 H        49        0    0.0000
    784 H         120.4370  109.8756  190.5489 H        49        0    0.0000
    785 H         117.8966  110.3399  189.1242 H        49        0    0.0000
    786 H         119.5285  110.4147  188.4635 H        49        0    0.0000
    787 H         117.9601  112.6412  188.7813 H        49        0    0.0000
    788 H         120.7918  113.0596  189.7370 H        49        0    0.0000
    789 H         119.8995  113.9725  188.5297 H        49        0    0.0000
    790 H         117.4452  112.2678  191.0703 H        49        0    0.0000
    791 H         118.6887  113.5136  191.2220 H        49        0    0.0000
    792 H         120.4160  111.8899  191.6445 H        49        0    0.0000
    793 H         119.3219  111.8938  193.7222 H        49        0    0.0000
    794 H         119.2825  110.1808  193.3158 H        49        0    0.0000
    795 C         117.3591  111.1674  193.1038 C.3      50        0    0.0000
    796 C         116.8158  110.7474  194.4770 C.3      50        0    0.0000
    797 H         117.0305  112.1961  192.9077 H        50        0    0.0000
    798 H         116.9411  110.5468  192.3026 H        50        0    0.0000
    799 H         116.0614  111.4548  194.8409 H        50        0    0.0000
    800 H         116.3093  109.7806  194.3615 H        50        0    0.0000
    801 C         116.7098  109.5116  199.0026 C.3      51        0    0.0000
    802 C         116.5640  109.4673  197.4893 C.3      51        0    0.0000
    803 C         117.4176  110.6491  197.0121 C.3      51        0    0.0000
    804 C         117.9248  110.5500  195.5678 C.3      51        0    0.0000
    805 C         118.5095  110.8353  198.0857 C.3      51        0    0.0000
    806 C         118.1973  109.8141  199.1949 C.3      51        0    0.0000
    807 C         118.5098  110.2948  200.6141 C.3      51        0    0.0000
    808 H         116.0860  110.3110  199.4210 H        51        0    0.0000
    809 H         116.4157  108.5670  199.4704 H        51        0    0.0000
    810 H         116.9382  108.5089  197.1133 H        51        0    0.0000
    811 H         115.5196  109.5647  197.1765 H        51        0    0.0000
    812 H         116.7794  111.5443  197.0552 H        51        0    0.0000
    813 H         118.7070  111.3027  195.4130 H        51        0    0.0000
    814 H         118.3970  109.5715  195.4203 H        51        0    0.0000
    815 H         118.4627  111.8627  198.4677 H        51        0    0.0000
    816 H         119.5228  110.6873  197.6980 H        51        0    0.0000
    817 H         118.7652  108.8959  198.9854 H        51        0    0.0000
    818 H         117.6626  110.8630  201.0161 H        51        0    0.0000
    819 H         118.6452  109.4260  201.2693 H        51        0    0.0000
    820 C         122.0373  111.1819  198.2832 C.3      52        0    0.0000
    821 C         121.1948  110.0531  198.8834 C.3      52        0    0.0000
    822 C         121.0625  110.3550  200.3801 C.3      52        0    0.0000
    823 C         119.7913  111.1724  200.6779 C.3      52        0    0.0000
    824 C         122.3751  111.0914  200.6765 C.3      52        0    0.0000
    825 C         122.5815  112.0029  199.4641 C.3      52        0    0.0000
    826 C         124.0405  112.4468  199.3100 C.3      52        0    0.0000
    827 H         122.8365  110.7582  197.6645 H        52        0    0.0000
    828 H         121.4245  111.8159  197.6322 H        52        0    0.0000
    829 H         121.7298  109.1041  198.7513 H        52        0    0.0000
    830 H         120.2297  109.9496  198.3769 H        52        0    0.0000
    831 H         121.0227  109.4159  200.9468 H        52        0    0.0000
    832 H         119.6963  111.9741  199.9355 H        52        0    0.0000
    833 H         119.8522  111.6593  201.6570 H        52        0    0.0000
    834 H         123.1927  110.3621  200.7476 H        52        0    0.0000
    835 H         122.3583  111.6566  201.6131 H        52        0    0.0000
    836 H         121.9485  112.8928  199.5877 H        52        0    0.0000
    837 H         124.0911  113.4299  198.8276 H        52        0    0.0000
    838 H         124.5678  111.7435  198.6546 H        52        0    0.0000
    839 C         124.7765  112.5010  200.6795 C.3      53        0    0.0000
    840 C         125.7504  111.3368  200.9109 C.3      53        0    0.0000
    841 H         124.0029  112.4574  201.4569 H        53        0    0.0000
    842 H         125.2786  113.4692  200.7910 H        53        0    0.0000
    843 H         125.4067  110.4818  200.3147 H        53        0    0.0000
    844 H         126.7577  111.5826  200.5547 H        53        0    0.0000
    845 C         124.2273  113.0707  205.0024 C.3      54        0    0.0000
    846 C         124.1577  112.2280  203.7380 C.3      54        0    0.0000
    847 C         125.6316  111.9946  203.4002 C.3      54        0    0.0000
    848 C         125.8204  110.8512  202.4002 C.3      54        0    0.0000
    849 C         126.2898  111.7647  204.7730 C.3      54        0    0.0000
    850 C         125.3500  112.4100  205.8122 C.3      54        0    0.0000
    851 C         126.0333  113.3155  206.8448 C.3      54        0    0.0000
    852 H         123.2772  113.0714  205.5458 H        54        0    0.0000
    853 H         124.4631  114.1074  204.7388 H        54        0    0.0000
    854 H         123.6432  111.2808  203.9409 H        54        0    0.0000
    855 H         123.6247  112.7418  202.9321 H        54        0    0.0000
    856 H         126.0389  112.9238  202.9758 H        54        0    0.0000
    857 H         126.7816  110.3527  202.5727 H        54        0    0.0000
    858 H         125.0413  110.0966  202.5614 H        54        0    0.0000
    859 H         126.3842  110.6941  204.9934 H        54        0    0.0000
    860 H         127.3019  112.1824  204.7912 H        54        0    0.0000
    861 H         124.8943  111.5840  206.3784 H        54        0    0.0000
    862 H         125.2680  113.8929  207.3770 H        54        0    0.0000
    863 H         126.6649  114.0413  206.3187 H        54        0    0.0000
    864 C         128.5313  113.6222  211.1385 C.3      55        0    0.0000
    865 C         127.3944  112.9285  210.4039 C.3      55        0    0.0000
    866 C         127.5219  113.4539  208.9684 C.3      55        0    0.0000
    867 C         126.9067  112.5580  207.8858 C.3      55        0    0.0000
    868 C         129.0152  113.7911  208.7787 C.3      55        0    0.0000
    869 C         129.6875  113.5361  210.1401 C.3      55        0    0.0000
    870 C         130.8215  114.5044  210.4854 C.3      55        0    0.0000
    871 H         128.2668  114.6656  211.3489 H        55        0    0.0000
    872 H         128.7663  113.1302  212.0874 H        55        0    0.0000
    873 H         127.5304  111.8431  210.4602 H        55        0    0.0000
    874 H         126.4198  113.1668  210.8414 H        55        0    0.0000
    875 H         126.9769  114.4088  208.9263 H        55        0    0.0000
    876 H         127.7125  112.0371  207.3549 H        55        0    0.0000
    877 H         126.2955  111.7845  208.3656 H        55        0    0.0000
    878 H         129.1084  114.8429  208.4809 H        55        0    0.0000
    879 H         129.4936  113.1959  207.9937 H        55        0    0.0000
    880 H         130.0711  112.5053  210.1456 H        55        0    0.0000
    881 H         130.4604  115.2811  211.1699 H        55        0    0.0000
    882 H         131.6130  113.9612  211.0154 H        55        0    0.0000
    883 C         131.4355  115.1772  209.2257 C.3      56        0    0.0000
    884 C         132.6305  116.0929  209.5273 C.3      56        0    0.0000
    885 H         130.6433  115.7887  208.7752 H        56        0    0.0000
    886 H         131.6972  114.4100  208.4876 H        56        0    0.0000
    887 H         132.2868  116.8919  210.1966 H        56        0    0.0000
    888 H         133.4209  115.5539  210.0628 H        56        0    0.0000
    889 C         136.1055  118.9441  207.3157 C.3      57        0    0.0000
    890 C         135.5965  117.5149  207.5190 C.3      57        0    0.0000
    891 C         134.5004  117.5874  208.5973 C.3      57        0    0.0000
    892 C         133.2332  116.7921  208.2599 C.3      57        0    0.0000
    893 C         134.2232  119.0853  208.7601 C.3      57        0    0.0000
    894 C         135.5753  119.7583  208.5009 C.3      57        0    0.0000
    895 C         136.5011  119.7099  209.7312 C.3      57        0    0.0000
    896 H         137.1939  118.9774  207.2086 H        57        0    0.0000
    897 H         135.6786  119.3421  206.3862 H        57        0    0.0000
    898 H         135.2328  117.1078  206.5691 H        57        0    0.0000
    899 H         136.4109  116.8647  207.8594 H        57        0    0.0000
    900 H         134.9207  117.2135  209.5419 H        57        0    0.0000
    901 H         132.4784  117.4706  207.8448 H        57        0    0.0000
    902 H         133.4454  116.0429  207.4884 H        57        0    0.0000
    903 H         133.8129  119.3215  209.7473 H        57        0    0.0000
    904 H         133.4966  119.4230  208.0097 H        57        0    0.0000
    905 H         135.4156  120.8029  208.2049 H        57        0    0.0000
    906 H         137.4149  120.2901  209.5619 H        57        0    0.0000
    907 H         136.8107  118.6739  209.9131 H        57        0    0.0000
    908 C         135.7882  120.2340  211.0114 C.3      58        0    0.0000
    909 C         136.5220  121.3909  211.7047 C.3      58        0    0.0000
    910 H         134.8006  120.5962  210.6983 H        58        0    0.0000
    911 H         135.6120  119.4019  211.7031 H        58        0    0.0000
    912 H         136.4211  121.3311  212.7947 H        58        0    0.0000
    913 H         137.5927  121.2965  211.4831 H        58        0    0.0000
    914 C         135.1179  120.6514  208.9340 C.3      59        0    0.0000
    915 C         136.3542  121.5499  209.0253 C.3      59        0    0.0000
    916 C         135.8968  122.8571  209.6819 C.3      59        0    0.0000
    917 C         136.0811  122.8122  211.2105 C.3      59        0    0.0000
    918 C         134.4371  122.9546  209.2206 C.3      59        0    0.0000
    919 C         133.9102  121.5209  209.3217 C.3      59        0    0.0000
    920 C         132.6629  121.2959  208.4594 C.3      59        0    0.0000
    921 H         135.0314  120.2429  207.9208 H        59        0    0.0000
    922 H         135.2077  119.8014  209.6200 H        59        0    0.0000
    923 H         136.7135  121.7610  208.0101 H        59        0    0.0000
    924 H         137.1754  121.0623  209.5605 H        59        0    0.0000
    925 H         136.4750  123.6982  209.2782 H        59        0    0.0000
    926 H         135.1306  123.0654  211.6956 H        59        0    0.0000
    927 H         136.8105  123.5577  211.5448 H        59        0    0.0000
    928 H         134.4076  123.2980  208.1783 H        59        0    0.0000
    929 H         133.8366  123.6521  209.8122 H        59        0    0.0000
    930 H         133.6598  121.3168  210.3722 H        59        0    0.0000
    931 H         131.9522  120.6435  208.9798 H        59        0    0.0000
    932 H         132.9481  120.7815  207.5340 H        59        0    0.0000
    933 C         131.6175  124.5758  211.3267 C.3      60        0    0.0000
    934 C         132.1458  123.3662  210.5709 C.3      60        0    0.0000
    935 C         131.3198  123.3622  209.2784 C.3      60        0    0.0000
    936 C         131.9648  122.6365  208.0909 C.3      60        0    0.0000
    937 C         130.9350  124.8343  209.0247 C.3      60        0    0.0000
    938 C         131.4733  125.6305  210.2276 C.3      60        0    0.0000
    939 C         130.5923  126.8032  210.6651 C.3      60        0    0.0000
    940 H         130.6473  124.3444  211.7830 H        60        0    0.0000
    941 H         132.3016  124.8946  212.1191 H        60        0    0.0000
    942 H         133.2161  123.4947  210.3768 H        60        0    0.0000
    943 H         132.0178  122.4405  211.1408 H        60        0    0.0000
    944 H         130.3839  122.8266  209.4970 H        60        0    0.0000
    945 H         131.1952  122.4353  207.3362 H        60        0    0.0000
    946 H         132.6993  123.3012  207.6208 H        60        0    0.0000
    947 H         129.8428  124.9107  208.9550 H        60        0    0.0000
    948 H         131.3407  125.2289  208.0872 H        60        0    0.0000
    949 H         132.4768  126.0011  209.9723 H        60        0    0.0000
    950 H         131.1927  127.5484  211.2002 H        60        0    0.0000
    951 H         130.1882  127.3037  209.7771 H        60        0    0.0000
    952 C         126.4354  128.6324  211.1156 C.3      61        0    0.0000
    953 C         127.8049  128.1165  210.6663 C.3      61        0    0.0000
    954 C         128.4679  127.5138  211.9118 C.3      61        0    0.0000
    955 C         129.4085  126.3556  211.5677 C.3      61        0    0.0000
    956 C         127.2730  127.1268  212.7896 C.3      61        0    0.0000
    957 C         126.3279  128.3201  212.6140 C.3      61        0    0.0000
    958 C         124.8840  128.0603  213.0523 C.3      61        0    0.0000
    959 H         126.3319  129.7070  210.9300 H        61        0    0.0000
    960 H         125.6488  128.1266  210.5429 H        61        0    0.0000
    961 H         128.4175  128.9212  210.2458 H        61        0    0.0000
    962 H         127.6714  127.3646  209.8792 H        61        0    0.0000
    963 H         129.0322  128.3101  212.4188 H        61        0    0.0000
    964 H         128.8448  125.5755  211.0421 H        61        0    0.0000
    965 H         129.8006  125.8991  212.4840 H        61        0    0.0000
    966 H         127.5629  126.9852  213.8356 H        61        0    0.0000
    967 H         126.8066  126.2003  212.4321 H        61        0    0.0000
    968 H         126.7355  129.1755  213.1723 H        61        0    0.0000
    969 H         124.6793  126.9834  213.0681 H        61        0    0.0000
    970 H         124.1982  128.5017  212.3193 H        61        0    0.0000
    971 C         124.5720  128.6664  214.4481 C.3      62        0    0.0000
    972 C         123.5830  127.8383  215.2809 C.3      62        0    0.0000
    973 H         125.5231  128.7107  214.9940 H        62        0    0.0000
    974 H         124.2281  129.7010  214.3331 H        62        0    0.0000
    975 H         122.5865  127.8290  214.8237 H        62        0    0.0000
    976 H         123.9333  126.7982  215.2905 H        62        0    0.0000
    977 C         121.5664  131.3882  217.2824 C.3      63        0    0.0000
    978 C         122.0041  130.3203  216.2811 C.3      63        0    0.0000
    979 C         122.1479  129.0078  217.0709 C.3      63        0    0.0000
    980 C         123.4735  128.2929  216.7775 C.3      63        0    0.0000
    981 C         121.9682  129.4146  218.5416 C.3      63        0    0.0000
    982 C         121.0351  130.6316  218.5026 C.3      63        0    0.0000
    983 C         119.5443  130.2787  218.3505 C.3      63        0    0.0000
    984 H         122.4432  131.9788  217.5772 H        63        0    0.0000
    985 H         120.8388  132.0830  216.8513 H        63        0    0.0000
    986 H         122.9318  130.6217  215.7824 H        63        0    0.0000
    987 H         121.2438  130.1983  215.5006 H        63        0    0.0000
    988 H         121.3153  128.3496  216.7851 H        63        0    0.0000
    989 H         123.5921  127.4249  217.4364 H        63        0    0.0000
    990 H         124.3068  128.9717  216.9952 H        63        0    0.0000
    991 H         121.5775  128.5930  219.1499 H        63        0    0.0000
    992 H         122.9315  129.7147  218.9743 H        63        0    0.0000
    993 H         121.1719  131.2421  219.4043 H        63        0    0.0000
    994 H         119.4080  129.3910  217.7235 H        63        0    0.0000
    995 H         119.0283  131.1028  217.8430 H        63        0    0.0000
    996 C         122.0417  130.0347  221.7423 C.3      64        0    0.0000
    997 C         121.2937  129.8336  220.4217 C.3      64        0    0.0000
    998 C         119.8315  129.5544  220.7932 C.3      64        0    0.0000
    999 C         118.8541  130.0541  219.7257 C.3      64        0    0.0000
   1000 C         119.6842  130.2307  222.1603 C.3      64        0    0.0000
   1001 C         121.0003  129.8685  222.8567 C.3      64        0    0.0000
   1002 C         121.3252  130.7182  224.0884 C.3      64        0    0.0000
   1003 H         122.8563  129.3112  221.8550 H        64        0    0.0000
   1004 H         122.4909  131.0349  221.7587 H        64        0    0.0000
   1005 H         121.7173  129.0051  219.8440 H        64        0    0.0000
   1006 H         121.3863  130.7380  219.8084 H        64        0    0.0000
   1007 H         119.7125  128.4690  220.9242 H        64        0    0.0000
   1008 H         118.4137  131.0032  220.0539 H        64        0    0.0000
   1009 H         118.0259  129.3457  219.6069 H        64        0    0.0000
   1010 H         118.8144  129.8571  222.7099 H        64        0    0.0000
   1011 H         119.5833  131.3179  222.0520 H        64        0    0.0000
   1012 H         120.9669  128.8061  223.1389 H        64        0    0.0000
   1013 H         121.1454  131.7787  223.8770 H        64        0    0.0000
   1014 H         122.3914  130.6194  224.3252 H        64        0    0.0000
   1015 C         120.5010  130.2923  225.3343 C.3      65        0    0.0000
   1016 C         121.3027  130.2958  226.6437 C.3      65        0    0.0000
   1017 H         120.1547  129.2673  225.1498 H        65        0    0.0000
   1018 H         119.6034  130.9167  225.4145 H        65        0    0.0000
   1019 H         122.3285  129.9790  226.4157 H        65        0    0.0000
   1020 H         121.3729  131.3052  227.0658 H        65        0    0.0000
   1021 C         122.6145  129.2891  230.9404 C.3      66        0    0.0000
   1022 C         122.5094  129.8783  229.5316 C.3      66        0    0.0000
   1023 C         121.8704  128.7926  228.6470 C.3      66        0    0.0000
   1024 C         120.7541  129.3062  227.7293 C.3      66        0    0.0000
   1025 C         121.3711  127.7370  229.6387 C.3      66        0    0.0000
   1026 C         122.3805  127.7819  230.7908 C.3      66        0    0.0000
   1027 C         123.6682  126.9977  230.4745 C.3      66        0    0.0000
   1028 H         123.5655  129.5430  231.4182 H        66        0    0.0000
   1029 H         121.8178  129.7167  231.5625 H        66        0    0.0000
   1030 H         121.9261  130.8054  229.5556 H        66        0    0.0000
   1031 H         123.5049  130.1318  229.1488 H        66        0    0.0000
   1032 H         122.6615  128.3377  228.0339 H        66        0    0.0000
   1033 H         120.2833  128.4570  227.2199 H        66        0    0.0000
   1034 H         119.9707  129.7979  228.3175 H        66        0    0.0000
   1035 H         121.2942  126.7463  229.1790 H        66        0    0.0000
   1036 H         120.3753  128.0064  230.0142 H        66        0    0.0000
   1037 H         121.9195  127.3755  231.7000 H        66        0    0.0000
   1038 H         124.3935  127.0817  231.2914 H        66        0    0.0000
   1039 H         124.1430  127.4224  229.5820 H        66        0    0.0000
   1040 C         120.3457  123.8207  228.9777 C.3      67        0    0.0000
   1041 C         121.5635  123.7225  229.8952 C.3      67        0    0.0000
   1042 C         121.8874  125.1552  230.3529 C.3      67        0    0.0000
   1043 C         123.3758  125.4943  230.1983 C.3      67        0    0.0000
   1044 C         120.9521  126.0508  229.5260 C.3      67        0    0.0000
   1045 C         119.7135  125.1863  229.2585 C.3      67        0    0.0000
   1046 C         118.7213  125.1249  230.4342 C.3      67        0    0.0000
   1047 H         120.6840  123.7870  227.9342 H        67        0    0.0000
   1048 H         119.6543  122.9842  229.1204 H        67        0    0.0000
   1049 H         122.3981  123.2429  229.3722 H        67        0    0.0000
   1050 H         121.3310  123.1014  230.7683 H        67        0    0.0000
   1051 H         121.6088  125.2416  231.4127 H        67        0    0.0000
   1052 H         123.7246  125.2291  229.1935 H        67        0    0.0000
   1053 H         123.9596  124.8924  230.9051 H        67        0    0.0000
   1054 H         120.7191  126.9876  230.0416 H        67        0    0.0000
   1055 H         121.4219  126.3108  228.5685 H        67        0    0.0000
   1056 H         119.1901  125.5426  228.3620 H        67        0    0.0000
   1057 H         118.7645  124.1545  230.9403 H        67        0    0.0000
   1058 H         117.6996  125.2326  230.0501 H        67        0    0.0000
   1059 C         118.9686  126.2607  231.4669 C.3      68        0    0.0000
   1060 C         117.9342  126.3093  232.6006 C.3      68        0    0.0000
   1061 H         119.9540  126.0744  231.9129 H        68        0    0.0000
   1062 H         119.0368  127.2239  230.9476 H        68        0    0.0000
   1063 H         118.4174  126.2633  233.5836 H        68        0    0.0000
   1064 H         117.4182  127.2766  232.5494 H        68        0    0.0000
   1065 C         113.7056  124.2036  232.6665 C.3      69        0    0.0000
   1066 C         114.3295  125.6017  232.6860 C.3      69        0    0.0000
   1067 C         115.6503  125.4800  233.4539 C.3      69        0    0.0000
   1068 C         116.8292  125.2011  232.5026 C.3      69        0    0.0000
   1069 C         115.3459  124.3436  234.4384 C.3      69        0    0.0000
   1070 C         114.5453  123.3317  233.6148 C.3      69        0    0.0000
   1071 C         113.7265  122.3809  234.4953 C.3      69        0    0.0000
   1072 H         112.6550  124.2631  232.9727 H        69        0    0.0000
   1073 H         113.7250  123.7871  231.6529 H        69        0    0.0000
   1074 H         113.6579  126.2809  233.2262 H        69        0    0.0000
   1075 H         114.4526  126.0086  231.6772 H        69        0    0.0000
   1076 H         115.8482  126.4094  234.0031 H        69        0    0.0000
   1077 H         116.4603  125.1737  231.4701 H        69        0    0.0000
   1078 H         117.2762  124.2210  232.7005 H        69        0    0.0000
   1079 H         114.7342  124.7317  235.2633 H        69        0    0.0000
   1080 H         116.2411  123.8938  234.8783 H        69        0    0.0000
   1081 H         115.2491  122.7421  233.0107 H        69        0    0.0000
   1082 H         114.2970  121.4685  234.7044 H        69        0    0.0000
   1083 H         112.8221  122.0741  233.9567 H        69        0    0.0000
   1084 C         116.3152  122.8114  238.1454 C.3      70        0    0.0000
   1085 C         115.5570  122.3488  236.9090 C.3      70        0    0.0000
   1086 C         114.4799  123.4263  236.7458 C.3      70        0    0.0000
   1087 C         113.3068  123.0505  235.8353 C.3      70        0    0.0000
   1088 C         114.1008  123.8418  238.1807 C.3      70        0    0.0000
   1089 C         115.1919  123.2467  239.0922 C.3      70        0    0.0000
   1090 C         115.6265  124.1302  240.2655 C.3      70        0    0.0000
   1091 H         116.9266  122.0109  238.5733 H        70        0    0.0000
   1092 H         116.9786  123.6429  237.8831 H        70        0    0.0000
   1093 H         116.2078  122.2817  236.0317 H        70        0    0.0000
   1094 H         115.1251  121.3582  237.0889 H        70        0    0.0000
   1095 H         114.9679  124.2975  236.2831 H        70        0    0.0000
   1096 H         112.6385  122.3694  236.3753 H        70        0    0.0000
   1097 H         112.7240  123.9518  235.6113 H        70        0    0.0000
   1098 H         113.1202  123.4631  238.4885 H        70        0    0.0000
   1099 H         114.0434  124.9338  238.2425 H        70        0    0.0000
   1100 H         114.7713  122.3293  239.5310 H        70        0    0.0000
   1101 H         115.9096  123.4905  241.1098 H        70        0    0.0000
   1102 H         116.5248  124.6899  239.9792 H        70        0    0.0000
   1103 C         114.5396  125.1390  240.7443 C.3      71        0    0.0000
   1104 C         115.1086  126.4561  241.2911 C.3      71        0    0.0000
   1105 H         113.9843  124.6464  241.5527 H        71        0    0.0000
   1106 H         113.8216  125.3198  239.9358 H        71        0    0.0000
   1107 H         114.2662  127.1191  241.5267 H        71        0    0.0000
   1108 H         115.6535  126.2964  242.2289 H        71        0    0.0000
   1109 C         116.0205  127.2268  240.2747 C.3      72        0    0.0000
   1110 C         115.5107  128.6308  239.9194 C.3      72        0    0.0000
   1111 H         116.0436  126.6299  239.3540 H        72        0    0.0000
   1112 H         117.0491  127.2598  240.6527 H        72        0    0.0000
   1113 H         115.8428  128.8657  238.9000 H        72        0    0.0000
   1114 H         114.4150  128.6663  239.9081 H        72        0    0.0000
   1115 H         115.8970  129.4190  240.5657 H        72        0    0.0000
   1116 H         172.9899  145.2238   50.7833 H         0        0    0.0000
@<TRIPOS>BOND
     1     1     2      1
     2     1     6      1
     3     1     8      1
     4     1     9      1
     5     2     3      1
     6     2    10      1
     7     2    11      1
     8     3     4      1
     9     3     5      1
    10     3    12      1
    11     4    13      1
    12     4    14      1
    13     4  1116      H
    14     5     6      1
    15     5    15      1
    16     5    16      1
    17     6     7      1
    18     6    17      1
    19     7    18      1
    20     7    19      1
    21     7    23      1
    22    20    21      1
    23    20    25      1
    24    20    27      1
    25    20    28      1
    26    21    22      1
    27    21    29      1
    28    21    30      1
    29    22    23      1
    30    22    24      1
    31    22    31      1
    32    23    32      1
    33    23    33      1
    34    24    25      1
    35    24    34      1
    36    24    35      1
    37    25    26      1
    38    25    36      1
    39    26    37      1
    40    26    38      1
    41    26    39      1
    42    39    40      1
    43    39    41      1
    44    39    42      1
    45    40    43      1
    46    40    44      1
    47    40    48      1
    48    45    46      1
    49    45    50      1
    50    45    52      1
    51    45    53      1
    52    46    47      1
    53    46    54      1
    54    46    55      1
    55    47    48      1
    56    47    49      1
    57    47    56      1
    58    48    57      1
    59    48    58      1
    60    49    50      1
    61    49    59      1
    62    49    60      1
    63    50    51      1
    64    50    61      1
    65    51    62      1
    66    51    63      1
    67    51    64      1
    68    64    65      1
    69    64    66      1
    70    64    67      1
    71    65    68      1
    72    65    69      1
    73    65    73      1
    74    70    71      1
    75    70    75      1
    76    70    77      1
    77    70    78      1
    78    71    72      1
    79    71    79      1
    80    71    80      1
    81    72    73      1
    82    72    74      1
    83    72    81      1
    84    73    82      1
    85    73    83      1
    86    74    75      1
    87    74    84      1
    88    74    85      1
    89    75    76      1
    90    75    86      1
    91    76    87      1
    92    76    88      1
    93    76    92      1
    94    89    90      1
    95    89    94      1
    96    89    96      1
    97    89    97      1
    98    90    91      1
    99    90    98      1
   100    90    99      1
   101    91    92      1
   102    91    93      1
   103    91   100      1
   104    92   101      1
   105    92   102      1
   106    93    94      1
   107    93   103      1
   108    93   104      1
   109    94    95      1
   110    94   105      1
   111    95   106      1
   112    95   107      1
   113    95   108      1
   114   108   109      1
   115   108   110      1
   116   108   111      1
   117   109   112      1
   118   109   113      1
   119   109   114      1
   120   114   115      1
   121   114   116      1
   122   114   117      1
   123   115   118      1
   124   115   119      1
   125   115   120      1
   126   120   121      1
   127   120   122      1
   128   120   123      1
   129   121   124      1
   130   121   125      1
   131   121   126      1
   132   126   127      1
   133   126   128      1
   134   126   129      1
   135   127   130      1
   136   127   131      1
   137   127   135      1
   138   132   133      1
   139   132   137      1
   140   132   139      1
   141   132   140      1
   142   133   134      1
   143   133   141      1
   144   133   142      1
   145   134   135      1
   146   134   136      1
   147   134   143      1
   148   135   144      1
   149   135   145      1
   150   136   137      1
   151   136   146      1
   152   136   147      1
   153   137   138      1
   154   137   148      1
   155   138   149      1
   156   138   150      1
   157   138   154      1
   158   151   152      1
   159   151   156      1
   160   151   158      1
   161   151   159      1
   162   152   153      1
   163   152   160      1
   164   152   161      1
   165   153   154      1
   166   153   155      1
   167   153   162      1
   168   154   163      1
   169   154   164      1
   170   155   156      1
   171   155   165      1
   172   155   166      1
   173   156   157      1
   174   156   167      1
   175   157   168      1
   176   157   169      1
   177   157   170      1
   178   170   171      1
   179   170   172      1
   180   170   173      1
   181   171   174      1
   182   171   175      1
   183   171   179      1
   184   176   177      1
   185   176   181      1
   186   176   183      1
   187   176   184      1
   188   177   178      1
   189   177   185      1
   190   177   186      1
   191   178   179      1
   192   178   180      1
   193   178   187      1
   194   179   188      1
   195   179   189      1
   196   180   181      1
   197   180   190      1
   198   180   191      1
   199   181   182      1
   200   181   192      1
   201   182   193      1
   202   182   194      1
   203   182   195      1
   204   195   196      1
   205   195   197      1
   206   195   198      1
   207   196   199      1
   208   196   200      1
   209   196   204      1
   210   201   202      1
   211   201   206      1
   212   201   208      1
   213   201   209      1
   214   202   203      1
   215   202   210      1
   216   202   211      1
   217   203   204      1
   218   203   205      1
   219   203   212      1
   220   204   213      1
   221   204   214      1
   222   205   206      1
   223   205   215      1
   224   205   216      1
   225   206   207      1
   226   206   217      1
   227   207   218      1
   228   207   219      1
   229   207   223      1
   230   220   221      1
   231   220   225      1
   232   220   227      1
   233   220   228      1
   234   221   222      1
   235   221   229      1
   236   221   230      1
   237   222   223      1
   238   222   224      1
   239   222   231      1
   240   223   232      1
   241   223   233      1
   242   224   225      1
   243   224   234      1
   244   224   235      1
   245   225   226      1
   246   225   236      1
   247   226   237      1
   248   226   238      1
   249   226   242      1
   250   239   240      1
   251   239   244      1
   252   239   246      1
   253   239   247      1
   254   240   241      1
   255   240   248      1
   256   240   249      1
   257   241   242      1
   258   241   243      1
   259   241   250      1
   260   242   251      1
   261   242   252      1
   262   243   244      1
   263   243   253      1
   264   243   254      1
   265   244   245      1
   266   244   255      1
   267   245   256      1
   268   245   257      1
   269   245   261      1
   270   258   259      1
   271   258   263      1
   272   258   265      1
   273   258   266      1
   274   259   260      1
   275   259   267      1
   276   259   268      1
   277   260   261      1
   278   260   262      1
   279   260   269      1
   280   261   270      1
   281   261   271      1
   282   262   263      1
   283   262   272      1
   284   262   273      1
   285   263   264      1
   286   263   274      1
   287   264   275      1
   288   264   276      1
   289   264   277      1
   290   277   278      1
   291   277   279      1
   292   277   280      1
   293   278   281      1
   294   278   282      1
   295   278   286      1
   296   283   284      1
   297   283   288      1
   298   283   290      1
   299   283   291      1
   300   284   285      1
   301   284   292      1
   302   284   293      1
   303   285   286      1
   304   285   287      1
   305   285   294      1
   306   286   295      1
   307   286   296      1
   308   287   288      1
   309   287   297      1
   310   287   298      1
   311   288   289      1
   312   288   299      1
   313   289   300      1
   314   289   301      1
   315   289   305      1
   316   302   303      1
   317   302   307      1
   318   302   309      1
   319   302   310      1
   320   303   304      1
   321   303   311      1
   322   303   312      1
   323   304   305      1
   324   304   306      1
   325   304   313      1
   326   305   314      1
   327   305   315      1
   328   306   307      1
   329   306   316      1
   330   306   317      1
   331   307   308      1
   332   307   318      1
   333   308   319      1
   334   308   320      1
   335   308   324      1
   336   321   322      1
   337   321   326      1
   338   321   328      1
   339   321   329      1
   340   322   323      1
   341   322   330      1
   342   322   331      1
   343   323   324      1
   344   323   325      1
   345   323   332      1
   346   324   333      1
   347   324   334      1
   348   325   326      1
   349   325   335      1
   350   325   336      1
   351   326   327      1
   352   326   337      1
   353   327   338      1
   354   327   339      1
   355   327   343      1
   356   340   341      1
   357   340   345      1
   358   340   347      1
   359   340   348      1
   360   341   342      1
   361   341   349      1
   362   341   350      1
   363   342   343      1
   364   342   344      1
   365   342   351      1
   366   343   352      1
   367   343   353      1
   368   344   345      1
   369   344   354      1
   370   344   355      1
   371   345   346      1
   372   345   356      1
   373   346   357      1
   374   346   358      1
   375   346   362      1
   376   359   360      1
   377   359   364      1
   378   359   366      1
   379   359   367      1
   380   360   361      1
   381   360   368      1
   382   360   369      1
   383   361   362      1
   384   361   363      1
   385   361   370      1
   386   362   371      1
   387   362   372      1
   388   363   364      1
   389   363   373      1
   390   363   374      1
   391   364   365      1
   392   364   375      1
   393   365   376      1
   394   365   377      1
   395   365   381      1
   396   378   379      1
   397   378   383      1
   398   378   385      1
   399   378   386      1
   400   379   380      1
   401   379   387      1
   402   379   388      1
   403   380   381      1
   404   380   382      1
   405   380   389      1
   406   381   390      1
   407   381   391      1
   408   382   383      1
   409   382   392      1
   410   382   393      1
   411   383   384      1
   412   383   394      1
   413   384   395      1
   414   384   396      1
   415   384   397      1
   416   397   398      1
   417   397   399      1
   418   397   400      1
   419   398   401      1
   420   398   402      1
   421   398   406      1
   422   403   404      1
   423   403   408      1
   424   403   410      1
   425   403   411      1
   426   404   405      1
   427   404   412      1
   428   404   413      1
   429   405   406      1
   430   405   407      1
   431   405   414      1
   432   406   415      1
   433   406   416      1
   434   407   408      1
   435   407   417      1
   436   407   418      1
   437   408   409      1
   438   408   419      1
   439   409   420      1
   440   409   421      1
   441   409   425      1
   442   422   423      1
   443   422   427      1
   444   422   429      1
   445   422   430      1
   446   423   424      1
   447   423   431      1
   448   423   432      1
   449   424   425      1
   450   424   426      1
   451   424   433      1
   452   425   434      1
   453   425   435      1
   454   426   427      1
   455   426   436      1
   456   426   437      1
   457   427   428      1
   458   427   438      1
   459   428   439      1
   460   428   440      1
   461   428   444      1
   462   441   442      1
   463   441   446      1
   464   441   448      1
   465   441   449      1
   466   442   443      1
   467   442   450      1
   468   442   451      1
   469   443   444      1
   470   443   445      1
   471   443   452      1
   472   444   453      1
   473   444   454      1
   474   445   446      1
   475   445   455      1
   476   445   456      1
   477   446   447      1
   478   446   457      1
   479   447   458      1
   480   447   459      1
   481   447   463      1
   482   460   461      1
   483   460   465      1
   484   460   467      1
   485   460   468      1
   486   461   462      1
   487   461   469      1
   488   461   470      1
   489   462   463      1
   490   462   464      1
   491   462   471      1
   492   463   472      1
   493   463   473      1
   494   464   465      1
   495   464   474      1
   496   464   475      1
   497   465   466      1
   498   465   476      1
   499   466   477      1
   500   466   478      1
   501   466   479      1
   502   479   480      1
   503   479   481      1
   504   479   482      1
   505   480   483      1
   506   480   484      1
   507   480   488      1
   508   485   486      1
   509   485   490      1
   510   485   492      1
   511   485   493      1
   512   486   487      1
   513   486   494      1
   514   486   495      1
   515   487   488      1
   516   487   489      1
   517   487   496      1
   518   488   497      1
   519   488   498      1
   520   489   490      1
   521   489   499      1
   522   489   500      1
   523   490   491      1
   524   490   501      1
   525   491   502      1
   526   491   503      1
   527   491   507      1
   528   504   505      1
   529   504   509      1
   530   504   511      1
   531   504   512      1
   532   505   506      1
   533   505   513      1
   534   505   514      1
   535   506   507      1
   536   506   508      1
   537   506   515      1
   538   507   516      1
   539   507   517      1
   540   508   509      1
   541   508   518      1
   542   508   519      1
   543   509   510      1
   544   509   520      1
   545   510   521      1
   546   510   522      1
   547   510   526      1
   548   523   524      1
   549   523   528      1
   550   523   530      1
   551   523   531      1
   552   524   525      1
   553   524   532      1
   554   524   533      1
   555   525   526      1
   556   525   527      1
   557   525   534      1
   558   526   535      1
   559   526   536      1
   560   527   528      1
   561   527   537      1
   562   527   538      1
   563   528   529      1
   564   528   539      1
   565   529   540      1
   566   529   541      1
   567   529   545      1
   568   542   543      1
   569   542   547      1
   570   542   549      1
   571   542   550      1
   572   543   544      1
   573   543   551      1
   574   543   552      1
   575   544   545      1
   576   544   546      1
   577   544   553      1
   578   545   554      1
   579   545   555      1
   580   546   547      1
   581   546   556      1
   582   546   557      1
   583   547   548      1
   584   547   558      1
   585   548   559      1
   586   548   560      1
   587   548   564      1
   588   561   562      1
   589   561   566      1
   590   561   568      1
   591   561   569      1
   592   562   563      1
   593   562   570      1
   594   562   571      1
   595   563   564      1
   596   563   565      1
   597   563   572      1
   598   564   573      1
   599   564   574      1
   600   565   566      1
   601   565   575      1
   602   565   576      1
   603   566   567      1
   604   566   577      1
   605   567   578      1
   606   567   579      1
   607   567   583      1
   608   580   581      1
   609   580   585      1
   610   580   587      1
   611   580   588      1
   612   581   582      1
   613   581   589      1
   614   581   590      1
   615   582   583      1
   616   582   584      1
   617   582   591      1
   618   583   592      1
   619   583   593      1
   620   584   585      1
   621   584   594      1
   622   584   595      1
   623   585   586      1
   624   585   596      1
   625   586   597      1
   626   586   598      1
   627   586   602      1
   628   599   600      1
   629   599   604      1
   630   599   606      1
   631   599   607      1
   632   600   601      1
   633   600   608      1
   634   600   609      1
   635   601   602      1
   636   601   603      1
   637   601   610      1
   638   602   611      1
   639   602   612      1
   640   603   604      1
   641   603   613      1
   642   603   614      1
   643   604   605      1
   644   604   615      1
   645   605   616      1
   646   605   617      1
   647   605   621      1
   648   618   619      1
   649   618   623      1
   650   618   625      1
   651   618   626      1
   652   619   620      1
   653   619   627      1
   654   619   628      1
   655   620   621      1
   656   620   622      1
   657   620   629      1
   658   621   630      1
   659   621   631      1
   660   622   623      1
   661   622   632      1
   662   622   633      1
   663   623   624      1
   664   623   634      1
   665   624   635      1
   666   624   636      1
   667   624   640      1
   668   637   638      1
   669   637   642      1
   670   637   644      1
   671   637   645      1
   672   638   639      1
   673   638   646      1
   674   638   647      1
   675   639   640      1
   676   639   641      1
   677   639   648      1
   678   640   649      1
   679   640   650      1
   680   641   642      1
   681   641   651      1
   682   641   652      1
   683   642   643      1
   684   642   653      1
   685   643   654      1
   686   643   655      1
   687   643   659      1
   688   656   657      1
   689   656   661      1
   690   656   663      1
   691   656   664      1
   692   657   658      1
   693   657   665      1
   694   657   666      1
   695   658   659      1
   696   658   660      1
   697   658   667      1
   698   659   668      1
   699   659   669      1
   700   660   661      1
   701   660   670      1
   702   660   671      1
   703   661   662      1
   704   661   672      1
   705   662   673      1
   706   662   674      1
   707   662   675      1
   708   675   676      1
   709   675   677      1
   710   675   678      1
   711   676   679      1
   712   676   680      1
   713   676   684      1
   714   681   682      1
   715   681   686      1
   716   681   688      1
   717   681   689      1
   718   682   683      1
   719   682   690      1
   720   682   691      1
   721   683   684      1
   722   683   685      1
   723   683   692      1
   724   684   693      1
   725   684   694      1
   726   685   686      1
   727   685   695      1
   728   685   696      1
   729   686   687      1
   730   686   697      1
   731   687   698      1
   732   687   699      1
   733   687   703      1
   734   700   701      1
   735   700   705      1
   736   700   707      1
   737   700   708      1
   738   701   702      1
   739   701   709      1
   740   701   710      1
   741   702   703      1
   742   702   704      1
   743   702   711      1
   744   703   712      1
   745   703   713      1
   746   704   705      1
   747   704   714      1
   748   704   715      1
   749   705   706      1
   750   705   716      1
   751   706   717      1
   752   706   718      1
   753   706   722      1
   754   719   720      1
   755   719   724      1
   756   719   726      1
   757   719   727      1
   758   720   721      1
   759   720   728      1
   760   720   729      1
   761   721   722      1
   762   721   723      1
   763   721   730      1
   764   722   731      1
   765   722   732      1
   766   723   724      1
   767   723   733      1
   768   723   734      1
   769   724   725      1
   770   724   735      1
   771   725   736      1
   772   725   737      1
   773   725   741      1
   774   738   739      1
   775   738   743      1
   776   738   745      1
   777   738   746      1
   778   739   740      1
   779   739   747      1
   780   739   748      1
   781   740   741      1
   782   740   742      1
   783   740   749      1
   784   741   750      1
   785   741   751      1
   786   742   743      1
   787   742   752      1
   788   742   753      1
   789   743   744      1
   790   743   754      1
   791   744   755      1
   792   744   756      1
   793   744   760      1
   794   757   758      1
   795   757   762      1
   796   757   764      1
   797   757   765      1
   798   758   759      1
   799   758   766      1
   800   758   767      1
   801   759   760      1
   802   759   761      1
   803   759   768      1
   804   760   769      1
   805   760   770      1
   806   761   762      1
   807   761   771      1
   808   761   772      1
   809   762   763      1
   810   762   773      1
   811   763   774      1
   812   763   775      1
   813   763   779      1
   814   776   777      1
   815   776   781      1
   816   776   783      1
   817   776   784      1
   818   777   778      1
   819   777   785      1
   820   777   786      1
   821   778   779      1
   822   778   780      1
   823   778   787      1
   824   779   788      1
   825   779   789      1
   826   780   781      1
   827   780   790      1
   828   780   791      1
   829   781   782      1
   830   781   792      1
   831   782   793      1
   832   782   794      1
   833   782   795      1
   834   795   796      1
   835   795   797      1
   836   795   798      1
   837   796   799      1
   838   796   800      1
   839   796   804      1
   840   801   802      1
   841   801   806      1
   842   801   808      1
   843   801   809      1
   844   802   803      1
   845   802   810      1
   846   802   811      1
   847   803   804      1
   848   803   805      1
   849   803   812      1
   850   804   813      1
   851   804   814      1
   852   805   806      1
   853   805   815      1
   854   805   816      1
   855   806   807      1
   856   806   817      1
   857   807   818      1
   858   807   819      1
   859   807   823      1
   860   820   821      1
   861   820   825      1
   862   820   827      1
   863   820   828      1
   864   821   822      1
   865   821   829      1
   866   821   830      1
   867   822   823      1
   868   822   824      1
   869   822   831      1
   870   823   832      1
   871   823   833      1
   872   824   825      1
   873   824   834      1
   874   824   835      1
   875   825   826      1
   876   825   836      1
   877   826   837      1
   878   826   838      1
   879   826   839      1
   880   839   840      1
   881   839   841      1
   882   839   842      1
   883   840   843      1
   884   840   844      1
   885   840   848      1
   886   845   846      1
   887   845   850      1
   888   845   852      1
   889   845   853      1
   890   846   847      1
   891   846   854      1
   892   846   855      1
   893   847   848      1
   894   847   849      1
   895   847   856      1
   896   848   857      1
   897   848   858      1
   898   849   850      1
   899   849   859      1
   900   849   860      1
   901   850   851      1
   902   850   861      1
   903   851   862      1
   904   851   863      1
   905   851   867      1
   906   864   865      1
   907   864   869      1
   908   864   871      1
   909   864   872      1
   910   865   866      1
   911   865   873      1
   912   865   874      1
   913   866   867      1
   914   866   868      1
   915   866   875      1
   916   867   876      1
   917   867   877      1
   918   868   869      1
   919   868   878      1
   920   868   879      1
   921   869   870      1
   922   869   880      1
   923   870   881      1
   924   870   882      1
   925   870   883      1
   926   883   884      1
   927   883   885      1
   928   883   886      1
   929   884   887      1
   930   884   888      1
   931   884   892      1
   932   889   890      1
   933   889   894      1
   934   889   896      1
   935   889   897      1
   936   890   891      1
   937   890   898      1
   938   890   899      1
   939   891   892      1
   940   891   893      1
   941   891   900      1
   942   892   901      1
   943   892   902      1
   944   893   894      1
   945   893   903      1
   946   893   904      1
   947   894   895      1
   948   894   905      1
   949   895   906      1
   950   895   907      1
   951   895   908      1
   952   908   909      1
   953   908   910      1
   954   908   911      1
   955   909   912      1
   956   909   913      1
   957   909   917      1
   958   914   915      1
   959   914   919      1
   960   914   921      1
   961   914   922      1
   962   915   916      1
   963   915   923      1
   964   915   924      1
   965   916   917      1
   966   916   918      1
   967   916   925      1
   968   917   926      1
   969   917   927      1
   970   918   919      1
   971   918   928      1
   972   918   929      1
   973   919   920      1
   974   919   930      1
   975   920   931      1
   976   920   932      1
   977   920   936      1
   978   933   934      1
   979   933   938      1
   980   933   940      1
   981   933   941      1
   982   934   935      1
   983   934   942      1
   984   934   943      1
   985   935   936      1
   986   935   937      1
   987   935   944      1
   988   936   945      1
   989   936   946      1
   990   937   938      1
   991   937   947      1
   992   937   948      1
   993   938   939      1
   994   938   949      1
   995   939   950      1
   996   939   951      1
   997   939   955      1
   998   952   953      1
   999   952   957      1
  1000   952   959      1
  1001   952   960      1
  1002   953   954      1
  1003   953   961      1
  1004   953   962      1
  1005   954   955      1
  1006   954   956      1
  1007   954   963      1
  1008   955   964      1
  1009   955   965      1
  1010   956   957      1
  1011   956   966      1
  1012   956   967      1
  1013   957   958      1
  1014   957   968      1
  1015   958   969      1
  1016   958   970      1
  1017   958   971      1
  1018   971   972      1
  1019   971   973      1
  1020   971   974      1
  1021   972   975      1
  1022   972   976      1
  1023   972   980      1
  1024   977   978      1
  1025   977   982      1
  1026   977   984      1
  1027   977   985      1
  1028   978   979      1
  1029   978   986      1
  1030   978   987      1
  1031   979   980      1
  1032   979   981      1
  1033   979   988      1
  1034   980   989      1
  1035   980   990      1
  1036   981   982      1
  1037   981   991      1
  1038   981   992      1
  1039   982   983      1
  1040   982   993      1
  1041   983   994      1
  1042   983   995      1
  1043   983   999      1
  1044   996   997      1
  1045   996  1001      1
  1046   996  1003      1
  1047   996  1004      1
  1048   997   998      1
  1049   997  1005      1
  1050   997  1006      1
  1051   998   999      1
  1052   998  1000      1
  1053   998  1007      1
  1054   999  1008      1
  1055   999  1009      1
  1056  1000  1001      1
  1057  1000  1010      1
  1058  1000  1011      1
  1059  1001  1002      1
  1060  1001  1012      1
  1061  1002  1013      1
  1062  1002  1014      1
  1063  1002  1015      1
  1064  1015  1016      1
  1065  1015  1017      1
  1066  1015  1018      1
  1067  1016  1019      1
  1068  1016  1020      1
  1069  1016  1024      1
  1070  1021  1022      1
  1071  1021  1026      1
  1072  1021  1028      1
  1073  1021  1029      1
  1074  1022  1023      1
  1075  1022  1030      1
  1076  1022  1031      1
  1077  1023  1024      1
  1078  1023  1025      1
  1079  1023  1032      1
  1080  1024  1033      1
  1081  1024  1034      1
  1082  1025  1026      1
  1083  1025  1035      1
  1084  1025  1036      1
  1085  1026  1027      1
  1086  1026  1037      1
  1087  1027  1038      1
  1088  1027  1039      1
  1089  1027  1043      1
  1090  1040  1041      1
  1091  1040  1045      1
  1092  1040  1047      1
  1093  1040  1048      1
  1094  1041  1042      1
  1095  1041  1049      1
  1096  1041  1050      1
  1097  1042  1043      1
  1098  1042  1044      1
  1099  1042  1051      1
  1100  1043  1052      1
  1101  1043  1053      1
  1102  1044  1045      1
  1103  1044  1054      1
  1104  1044  1055      1
  1105  1045  1046      1
  1106  1045  1056      1
  1107  1046  1057      1
  1108  1046  1058      1
  1109  1046  1059      1
  1110  1059  1060      1
  1111  1059  1061      1
  1112  1059  1062      1
  1113  1060  1063      1
  1114  1060  1064      1
  1115  1060  1068      1
  1116  1065  1066      1
  1117  1065  1070      1
  1118  1065  1072      1
  1119  1065  1073      1
  1120  1066  1067      1
  1121  1066  1074      1
  1122  1066  1075      1
  1123  1067  1068      1
  1124  1067  1069      1
  1125  1067  1076      1
  1126  1068  1077      1
  1127  1068  1078      1
  1128  1069  1070      1
  1129  1069  1079      1
  1130  1069  1080      1
  1131  1070  1071      1
  1132  1070  1081      1
  1133  1071  1082      1
  1134  1071  1083      1
  1135  1071  1087      1
  1136  1084  1085      1
  1137  1084  1089      1
  1138  1084  1091      1
  1139  1084  1092      1
  1140  1085  1086      1
  1141  1085  1093      1
  1142  1085  1094      1
  1143  1086  1087      1
  1144  1086  1088      1
  1145  1086  1095      1
  1146  1087  1096      1
  1147  1087  1097      1
  1148  1088  1089      1
  1149  1088  1098      1
  1150  1088  1099      1
  1151  1089  1090      1
  1152  1089  1100      1
  1153  1090  1101      1
  1154  1090  1102      1
  1155  1090  1103      1
  1156  1103  1104      1
  1157  1103  1105      1
  1158  1103  1106      1
  1159  1104  1107      1
  1160  1104  1108      1
  1161  1104  1109      1
  1162  1109  1110      1
  1163  1109  1111      1
  1164  1109  1112      1
  1165  1110  1113      1
  1166  1110  1114      1
  1167  1110  1115      H
