###
### Created by PolyChef-cpp17 on Wed Feb 26 21:14:12 2025
###

@<TRIPOS>MOLECULE
NO_INFO
1160 1213 1 0 0
SMALL
USER_CHARGES


@<TRIPOS>ATOM
      1 C          77.4763  209.9240  187.0107 C.3       0        0    0.0000
      2 C          78.4229  211.1017  186.8255 C.3       0        0    0.0000
      3 C          79.7961  210.4268  186.7446 C.3       0        0    0.0000
      4 C          80.9974  211.3531  186.9567 C.3       0        0    0.0000
      5 C          79.7116  209.2192  187.6985 C.3       0        0    0.0000
      6 C          78.2156  209.0478  188.0272 C.3       0        0    0.0000
      7 C          77.7235  207.6009  188.1291 C.3       0        0    0.0000
      8 H          76.4955  210.2416  187.3780 H         0        0    0.0000
      9 H          77.3314  209.4115  186.0532 H         0        0    0.0000
     10 H          78.1919  211.6736  185.9215 H         0        0    0.0000
     11 H          78.3456  211.7772  187.6845 H         0        0    0.0000
     12 H          79.8917  210.0193  185.7268 H         0        0    0.0000
     13 H          81.2500  211.3733  188.0235 H         0        0    0.0000
     14 H          81.8673  210.9371  186.4348 H         0        0    0.0000
     15 H          80.2753  209.3689  188.6257 H         0        0    0.0000
     16 H          80.1445  208.3381  187.2128 H         0        0    0.0000
     17 H          78.0554  209.5026  189.0164 H         0        0    0.0000
     18 H          76.6395  207.6022  188.2940 H         0        0    0.0000
     19 H          77.8958  207.0954  187.1714 H         0        0    0.0000
     20 C          77.2682  207.1861  192.7711 C.3       1        0    0.0000
     21 C          77.0112  207.5247  191.3006 C.3       1        0    0.0000
     22 C          78.3825  207.5182  190.6014 C.3       1        0    0.0000
     23 C          78.4011  206.7722  189.2614 C.3       1        0    0.0000
     24 C          79.3324  206.8951  191.6292 C.3       1        0    0.0000
     25 C          78.7777  207.3402  192.9867 C.3       1        0    0.0000
     26 C          79.1939  208.7785  193.3484 C.3       1        0    0.0000
     27 H          76.6612  207.8006  193.4427 H         1        0    0.0000
     28 H          76.9846  206.1406  192.9476 H         1        0    0.0000
     29 H          76.3090  206.8041  190.8672 H         1        0    0.0000
     30 H          76.5531  208.5167  191.2121 H         1        0    0.0000
     31 H          78.6917  208.5606  190.4388 H         1        0    0.0000
     32 H          79.4395  206.5715  188.9720 H         1        0    0.0000
     33 H          77.9045  205.7998  189.3576 H         1        0    0.0000
     34 H          80.3698  207.2071  191.4709 H         1        0    0.0000
     35 H          79.3019  205.7998  191.5629 H         1        0    0.0000
     36 H          79.1233  206.6523  193.7688 H         1        0    0.0000
     37 H          78.7309  209.1001  194.2879 H         1        0    0.0000
     38 H          78.8435  209.4657  192.5691 H         1        0    0.0000
     39 C          80.7395  208.9216  193.4608 C.3       2        0    0.0000
     40 C          81.4621  208.9652  192.1067 C.3       2        0    0.0000
     41 H          80.9330  209.8687  193.9806 H         2        0    0.0000
     42 H          81.1386  208.1258  194.1005 H         2        0    0.0000
     43 H          80.9476  209.6281  191.4012 H         2        0    0.0000
     44 H          82.4605  209.3918  192.2672 H         2        0    0.0000
     45 C          81.7012  205.6598  194.6407 C.3       3        0    0.0000
     46 C          82.1289  206.9368  193.9134 C.3       3        0    0.0000
     47 C          82.3052  206.5612  192.4311 C.3       3        0    0.0000
     48 C          81.6719  207.5564  191.4510 C.3       3        0    0.0000
     49 C          81.6944  205.1608  192.3168 C.3       3        0    0.0000
     50 C          81.9777  204.5045  193.6723 C.3       3        0    0.0000
     51 C          83.4157  203.9613  193.7728 C.3       3        0    0.0000
     52 H          82.2018  205.5546  195.6079 H         3        0    0.0000
     53 H          80.6232  205.7113  194.8405 H         3        0    0.0000
     54 H          81.3823  207.7237  194.0672 H         3        0    0.0000
     55 H          83.0778  207.3071  194.3187 H         3        0    0.0000
     56 H          83.3814  206.4824  192.2209 H         3        0    0.0000
     57 H          82.3257  207.6727  190.5784 H         3        0    0.0000
     58 H          80.7139  207.1729  191.0813 H         3        0    0.0000
     59 H          82.1132  204.5982  191.4761 H         3        0    0.0000
     60 H          80.6096  205.2286  192.1628 H         3        0    0.0000
     61 H          81.2657  203.6867  193.8411 H         3        0    0.0000
     62 H          83.5476  203.3554  194.6761 H         3        0    0.0000
     63 H          84.1175  204.8006  193.8469 H         3        0    0.0000
     64 C          83.8023  203.1157  192.5248 C.3       4        0    0.0000
     65 C          85.3161  202.9870  192.3029 C.3       4        0    0.0000
     66 H          83.3950  202.1093  192.6854 H         4        0    0.0000
     67 H          83.3017  203.5182  191.6364 H         4        0    0.0000
     68 H          85.8132  203.9620  192.3685 H         4        0    0.0000
     69 H          85.7275  202.3701  193.1120 H         4        0    0.0000
     70 C          87.3943  199.4831  191.2295 C.3       5        0    0.0000
     71 C          87.5327  200.8287  191.9467 C.3       5        0    0.0000
     72 C          87.1987  201.9107  190.9139 C.3       5        0    0.0000
     73 C          85.7052  202.2851  190.9559 C.3       5        0    0.0000
     74 C          87.6526  201.2549  189.6035 C.3       5        0    0.0000
     75 C          87.2091  199.7958  189.7353 C.3       5        0    0.0000
     76 C          87.9788  198.8649  188.7916 C.3       5        0    0.0000
     77 H          88.2810  198.8685  191.4217 H         5        0    0.0000
     78 H          86.5278  198.9306  191.6106 H         5        0    0.0000
     79 H          88.5732  200.9494  192.2739 H         5        0    0.0000
     80 H          86.9071  200.8802  192.8436 H         5        0    0.0000
     81 H          87.7968  202.8098  191.1105 H         5        0    0.0000
     82 H          85.1025  201.3742  190.8562 H         5        0    0.0000
     83 H          85.4341  202.9324  190.1151 H         5        0    0.0000
     84 H          88.7462  201.3146  189.5272 H         5        0    0.0000
     85 H          87.2358  201.7285  188.7096 H         5        0    0.0000
     86 H          86.1372  199.7366  189.4996 H         5        0    0.0000
     87 H          87.3329  198.5368  187.9689 H         5        0    0.0000
     88 H          88.2820  197.9633  189.3369 H         5        0    0.0000
     89 C          91.5198  197.1640  186.3735 C.3       6        0    0.0000
     90 C          90.1536  197.5233  186.9637 C.3       6        0    0.0000
     91 C          90.4171  198.5715  188.0526 C.3       6        0    0.0000
     92 C          89.2503  199.5499  188.2132 C.3       6        0    0.0000
     93 C          91.7334  199.2156  187.6048 C.3       6        0    0.0000
     94 C          92.5519  198.0102  187.1304 C.3       6        0    0.0000
     95 C          93.7637  198.3631  186.2635 C.3       6        0    0.0000
     96 H          91.7336  196.0951  186.4808 H         6        0    0.0000
     97 H          91.5248  197.3902  185.3005 H         6        0    0.0000
     98 H          89.6532  196.6422  187.3795 H         6        0    0.0000
     99 H          89.5071  197.9207  186.1721 H         6        0    0.0000
    100 H          90.5901  198.0436  189.0018 H         6        0    0.0000
    101 H          89.0008  199.9794  187.2355 H         6        0    0.0000
    102 H          89.5410  200.3856  188.8605 H         6        0    0.0000
    103 H          92.2272  199.7487  188.4234 H         6        0    0.0000
    104 H          91.5649  199.9237  186.7837 H         6        0    0.0000
    105 H          92.8812  197.4411  188.0120 H         6        0    0.0000
    106 H          93.5616  199.2673  185.6775 H         6        0    0.0000
    107 H          93.9426  197.5541  185.5450 H         6        0    0.0000
    108 C          95.0526  198.5699  187.1055 C.3       7        0    0.0000
    109 C          96.3292  198.0488  186.4302 C.3       7        0    0.0000
    110 H          95.1634  199.6516  187.2545 H         7        0    0.0000
    111 H          94.9188  198.1286  188.1001 H         7        0    0.0000
    112 H          96.1250  197.1582  185.8243 H         7        0    0.0000
    113 H          96.6891  198.8223  185.7397 H         7        0    0.0000
    114 C          97.5018  197.7515  187.4279 C.3       8        0    0.0000
    115 C          98.6826  198.7260  187.3109 C.3       8        0    0.0000
    116 H          97.8680  196.7434  187.1951 H         8        0    0.0000
    117 H          97.1145  197.7153  188.4529 H         8        0    0.0000
    118 H          99.3601  198.3482  186.5345 H         8        0    0.0000
    119 H          98.3504  199.7175  186.9816 H         8        0    0.0000
    120 C          99.5293  198.8614  188.6237 C.3       9        0    0.0000
    121 C         100.8649  199.5941  188.4318 C.3       9        0    0.0000
    122 H          98.9231  199.4388  189.3335 H         9        0    0.0000
    123 H          99.6780  197.8717  189.0712 H         9        0    0.0000
    124 H         100.7719  200.4090  187.7043 H         9        0    0.0000
    125 H         101.1396  200.0572  189.3882 H         9        0    0.0000
    126 C         102.0536  198.6559  188.0253 C.3      10        0    0.0000
    127 C         103.3554  199.4029  187.7016 C.3      10        0    0.0000
    128 H         101.7373  198.1165  187.1233 H        10        0    0.0000
    129 H         102.2105  197.8999  188.8036 H        10        0    0.0000
    130 H         103.1274  200.1781  186.9588 H        10        0    0.0000
    131 H         103.7483  199.9207  188.5844 H        10        0    0.0000
    132 C         107.0708  200.9088  185.7124 C.3      11        0    0.0000
    133 C         105.6741  200.6359  186.2528 C.3      11        0    0.0000
    134 C         105.7984  199.2180  186.8203 C.3      11        0    0.0000
    135 C         104.4730  198.4954  187.0802 C.3      11        0    0.0000
    136 C         106.7793  198.4895  185.8809 C.3      11        0    0.0000
    137 C         107.4344  199.5897  185.0230 C.3      11        0    0.0000
    138 C         108.9234  199.3936  184.7222 C.3      11        0    0.0000
    139 H         107.0820  201.7534  185.0164 H        11        0    0.0000
    140 H         107.7491  201.1416  186.5407 H        11        0    0.0000
    141 H         105.3831  201.3613  187.0188 H        11        0    0.0000
    142 H         104.9445  200.6909  185.4374 H        11        0    0.0000
    143 H         106.3018  199.3076  187.7948 H        11        0    0.0000
    144 H         104.1027  198.0765  186.1370 H        11        0    0.0000
    145 H         104.6527  197.6479  187.7523 H        11        0    0.0000
    146 H         106.2834  197.7630  185.2281 H        11        0    0.0000
    147 H         107.5051  197.9250  186.4760 H        11        0    0.0000
    148 H         106.9161  199.5838  184.0522 H        11        0    0.0000
    149 H         109.2054  200.0337  183.8778 H        11        0    0.0000
    150 H         109.5108  199.7322  185.5840 H        11        0    0.0000
    151 C         112.9723  197.6790  183.4740 C.3      12        0    0.0000
    152 C         111.7913  198.4531  184.0654 C.3      12        0    0.0000
    153 C         110.5252  197.8450  183.4479 C.3      12        0    0.0000
    154 C         109.3218  197.9240  184.3913 C.3      12        0    0.0000
    155 C         110.9624  196.4210  183.0885 C.3      12        0    0.0000
    156 C         112.3706  196.6355  182.5237 C.3      12        0    0.0000
    157 C         113.2235  195.3667  182.4373 C.3      12        0    0.0000
    158 H         113.6606  198.3443  182.9417 H        12        0    0.0000
    159 H         113.5399  197.2046  184.2835 H        12        0    0.0000
    160 H         111.8621  199.5231  183.8423 H        12        0    0.0000
    161 H         111.7958  198.3479  185.1569 H        12        0    0.0000
    162 H         110.3024  198.3886  182.5182 H        12        0    0.0000
    163 H         109.5623  197.4084  185.3287 H        12        0    0.0000
    164 H         108.4619  197.4022  183.9553 H        12        0    0.0000
    165 H         110.2932  195.9606  182.3547 H        12        0    0.0000
    166 H         110.9898  195.7817  183.9798 H        12        0    0.0000
    167 H         112.2830  197.0905  181.5263 H        12        0    0.0000
    168 H         112.7044  194.5987  181.8521 H        12        0    0.0000
    169 H         113.3639  194.9557  183.4442 H        12        0    0.0000
    170 C         114.6208  195.6351  181.8141 C.3      13        0    0.0000
    171 C         115.5259  194.3963  181.7550 C.3      13        0    0.0000
    172 H         114.4484  195.9801  180.7865 H        13        0    0.0000
    173 H         115.1092  196.4611  182.3442 H        13        0    0.0000
    174 H         115.4946  193.8342  182.6957 H        13        0    0.0000
    175 H         115.1371  193.7274  180.9766 H        13        0    0.0000
    176 C         117.3288  191.0593  181.5457 C.3      14        0    0.0000
    177 C         117.1388  192.2728  180.6371 C.3      14        0    0.0000
    178 C         117.8766  193.4451  181.3069 C.3      14        0    0.0000
    179 C         117.0147  194.7125  181.3778 C.3      14        0    0.0000
    180 C         118.3074  192.9034  182.6786 C.3      14        0    0.0000
    181 C         118.5068  191.3978  182.4629 C.3      14        0    0.0000
    182 C         119.8555  191.0260  181.8201 C.3      14        0    0.0000
    183 H         116.4246  190.9260  182.1534 H        14        0    0.0000
    184 H         117.4736  190.1365  180.9752 H        14        0    0.0000
    185 H         116.0725  192.4719  180.4836 H        14        0    0.0000
    186 H         117.5755  192.0793  179.6502 H        14        0    0.0000
    187 H         118.7782  193.6580  180.7153 H        14        0    0.0000
    188 H         117.0474  195.2493  180.4226 H        14        0    0.0000
    189 H         117.4278  195.3893  182.1355 H        14        0    0.0000
    190 H         119.2036  193.4059  183.0553 H        14        0    0.0000
    191 H         117.5095  193.0576  183.4167 H        14        0    0.0000
    192 H         118.4000  190.8620  183.4147 H        14        0    0.0000
    193 H         120.2782  191.8710  181.2661 H        14        0    0.0000
    194 H         119.6984  190.2212  181.0918 H        14        0    0.0000
    195 C         120.8861  190.5274  182.8724 C.3      15        0    0.0000
    196 C         122.1913  189.9951  182.2637 C.3      15        0    0.0000
    197 H         121.1326  191.3882  183.5070 H        15        0    0.0000
    198 H         120.4168  189.7815  183.5245 H        15        0    0.0000
    199 H         122.0033  189.1443  181.5984 H        15        0    0.0000
    200 H         122.6260  190.7889  181.6428 H        15        0    0.0000
    201 C         126.5258  190.2593  181.7473 C.3      16        0    0.0000
    202 C         125.7918  189.9470  183.0505 C.3      16        0    0.0000
    203 C         124.5683  189.0936  182.6739 C.3      16        0    0.0000
    204 C         123.2771  189.6055  183.3257 C.3      16        0    0.0000
    205 C         124.5413  189.1052  181.1377 C.3      16        0    0.0000
    206 C         126.0099  189.2496  180.7188 C.3      16        0    0.0000
    207 C         126.8096  187.9346  180.7594 C.3      16        0    0.0000
    208 H         126.2583  191.2733  181.4236 H        16        0    0.0000
    209 H         127.6130  190.2360  181.8716 H        16        0    0.0000
    210 H         125.5221  190.8739  183.5685 H        16        0    0.0000
    211 H         126.4428  189.3788  183.7253 H        16        0    0.0000
    212 H         124.7574  188.0653  183.0133 H        16        0    0.0000
    213 H         123.4907  190.4674  183.9685 H        16        0    0.0000
    214 H         122.8634  188.8228  183.9730 H        16        0    0.0000
    215 H         124.0640  188.2093  180.7288 H        16        0    0.0000
    216 H         123.9771  189.9735  180.7732 H        16        0    0.0000
    217 H         126.0753  189.6815  179.7120 H        16        0    0.0000
    218 H         127.3142  187.8059  181.7229 H        16        0    0.0000
    219 H         127.5962  187.9669  179.9958 H        16        0    0.0000
    220 C         126.1359  183.1524  181.7440 C.3      17        0    0.0000
    221 C         125.9092  184.6472  181.9845 C.3      17        0    0.0000
    222 C         126.6070  185.3796  180.8309 C.3      17        0    0.0000
    223 C         125.9129  186.6968  180.4733 C.3      17        0    0.0000
    224 C         126.6131  184.3361  179.7088 C.3      17        0    0.0000
    225 C         126.9613  183.0439  180.4551 C.3      17        0    0.0000
    226 C         126.6620  181.7584  179.6789 C.3      17        0    0.0000
    227 H         126.6593  182.6864  182.5859 H        17        0    0.0000
    228 H         125.1675  182.6477  181.6440 H        17        0    0.0000
    229 H         126.3140  184.9628  182.9521 H        17        0    0.0000
    230 H         124.8327  184.8554  181.9993 H        17        0    0.0000
    231 H         127.6463  185.5789  181.1303 H        17        0    0.0000
    232 H         124.9911  186.7911  181.0597 H        17        0    0.0000
    233 H         125.6173  186.6966  179.4176 H        17        0    0.0000
    234 H         127.3500  184.5724  178.9346 H        17        0    0.0000
    235 H         125.6261  184.2625  179.2352 H        17        0    0.0000
    236 H         128.0265  183.0720  180.7271 H        17        0    0.0000
    237 H         126.6012  181.9682  178.6046 H        17        0    0.0000
    238 H         125.6812  181.3727  179.9817 H        17        0    0.0000
    239 C         130.2382  183.2867  179.2003 C.3      18        0    0.0000
    240 C         129.1459  182.3755  178.6350 C.3      18        0    0.0000
    241 C         129.1292  181.1115  179.5131 C.3      18        0    0.0000
    242 C         127.7259  180.6548  179.9306 C.3      18        0    0.0000
    243 C         130.0079  181.4701  180.7157 C.3      18        0    0.0000
    244 C         131.0711  182.4166  180.1480 C.3      18        0    0.0000
    245 C         132.2088  181.6620  179.4345 C.3      18        0    0.0000
    246 H         130.8239  183.7611  178.4071 H        18        0    0.0000
    247 H         129.7637  184.0922  179.7752 H        18        0    0.0000
    248 H         128.1851  182.9019  178.6283 H        18        0    0.0000
    249 H         129.3741  182.1049  177.5975 H        18        0    0.0000
    250 H         129.6232  180.3003  178.9593 H        18        0    0.0000
    251 H         127.4471  179.7647  179.3540 H        18        0    0.0000
    252 H         127.7164  180.3645  180.9875 H        18        0    0.0000
    253 H         130.4386  180.5815  181.1884 H        18        0    0.0000
    254 H         129.4176  181.9972  181.4765 H        18        0    0.0000
    255 H         131.4897  183.0277  180.9577 H        18        0    0.0000
    256 H         132.6761  182.2864  178.6650 H        18        0    0.0000
    257 H         131.7983  180.7822  178.9249 H        18        0    0.0000
    258 C         131.9200  179.0329  183.1328 C.3      19        0    0.0000
    259 C         131.6083  179.9112  181.9187 C.3      19        0    0.0000
    260 C         132.7239  180.9690  181.8426 C.3      19        0    0.0000
    261 C         133.2974  181.1776  180.4356 C.3      19        0    0.0000
    262 C         133.7818  180.4805  182.8373 C.3      19        0    0.0000
    263 C         132.9800  179.7865  183.9436 C.3      19        0    0.0000
    264 C         132.3762  180.7870  184.9474 C.3      19        0    0.0000
    265 H         131.0179  178.7906  183.7027 H        19        0    0.0000
    266 H         132.3436  178.0830  182.7822 H        19        0    0.0000
    267 H         131.5449  179.2939  181.0158 H        19        0    0.0000
    268 H         130.6367  180.4035  182.0433 H        19        0    0.0000
    269 H         132.3212  181.9223  182.2136 H        19        0    0.0000
    270 H         134.0931  181.9310  180.4758 H        19        0    0.0000
    271 H         133.7545  180.2520  180.0673 H        19        0    0.0000
    272 H         134.4019  181.3011  183.2125 H        19        0    0.0000
    273 H         134.4496  179.7528  182.3581 H        19        0    0.0000
    274 H         133.6263  179.0784  184.4776 H        19        0    0.0000
    275 H         131.5166  180.3531  185.4701 H        19        0    0.0000
    276 H         132.0092  181.6678  184.4072 H        19        0    0.0000
    277 C         133.4273  181.2627  185.9918 C.3      20        0    0.0000
    278 C         134.1563  182.5555  185.5987 C.3      20        0    0.0000
    279 H         132.8831  181.4493  186.9265 H        20        0    0.0000
    280 H         134.1360  180.4521  186.1982 H        20        0    0.0000
    281 H         133.4577  183.3040  185.2066 H        20        0    0.0000
    282 H         134.6000  182.9854  186.5059 H        20        0    0.0000
    283 C         134.0977  178.8846  184.4836 C.3      21        0    0.0000
    284 C         133.8663  180.3237  184.0253 C.3      21        0    0.0000
    285 C         135.2548  180.9723  183.8905 C.3      21        0    0.0000
    286 C         135.3284  182.3414  184.5794 C.3      21        0    0.0000
    287 C         136.2299  179.9311  184.4613 C.3      21        0    0.0000
    288 C         135.5668  178.5761  184.1833 C.3      21        0    0.0000
    289 C         135.7594  178.0631  182.7445 C.3      21        0    0.0000
    290 H         133.9305  178.8260  185.5668 H        21        0    0.0000
    291 H         133.4013  178.1850  184.0107 H        21        0    0.0000
    292 H         133.2165  180.8501  184.7330 H        21        0    0.0000
    293 H         133.3594  180.3349  183.0532 H        21        0    0.0000
    294 H         135.4651  181.0990  182.8191 H        21        0    0.0000
    295 H         135.3197  183.1443  183.8331 H        21        0    0.0000
    296 H         136.2782  182.4234  185.1214 H        21        0    0.0000
    297 H         137.2281  180.0193  184.0216 H        21        0    0.0000
    298 H         136.3359  180.0630  185.5460 H        21        0    0.0000
    299 H         135.9377  177.8217  184.8888 H        21        0    0.0000
    300 H         135.0916  178.5786  182.0460 H        21        0    0.0000
    301 H         135.4959  176.9993  182.7024 H        21        0    0.0000
    302 C         138.7671  181.2531  183.6304 C.3      22        0    0.0000
    303 C         137.5816  180.2918  183.7023 C.3      22        0    0.0000
    304 C         138.1153  178.9034  183.3093 C.3      22        0    0.0000
    305 C         137.2304  178.2131  182.2631 C.3      22        0    0.0000
    306 C         139.5567  179.1565  182.8412 C.3      22        0    0.0000
    307 C         140.0229  180.3778  183.6439 C.3      22        0    0.0000
    308 C         140.4771  180.0535  185.0788 C.3      22        0    0.0000
    309 H         138.7206  181.8035  182.6820 H        22        0    0.0000
    310 H         138.7454  181.9943  184.4355 H        22        0    0.0000
    311 H         136.7703  180.6366  183.0519 H        22        0    0.0000
    312 H         137.1833  180.2571  184.7232 H        22        0    0.0000
    313 H         138.1453  178.2845  184.2172 H        22        0    0.0000
    314 H         137.6380  177.2275  182.0099 H        22        0    0.0000
    315 H         137.2339  178.8039  181.3393 H        22        0    0.0000
    316 H         140.1948  178.2791  182.9845 H        22        0    0.0000
    317 H         139.5720  179.4029  181.7715 H        22        0    0.0000
    318 H         140.8363  180.8902  183.1144 H        22        0    0.0000
    319 H         139.9557  179.1739  185.4714 H        22        0    0.0000
    320 H         140.2175  180.8913  185.7374 H        22        0    0.0000
    321 C         141.8132  178.9812  181.5614 C.3      23        0    0.0000
    322 C         141.4969  178.5424  182.9933 C.3      23        0    0.0000
    323 C         142.5688  179.1793  183.8958 C.3      23        0    0.0000
    324 C         142.0132  179.8298  185.1687 C.3      23        0    0.0000
    325 C         143.2818  180.1874  182.9889 C.3      23        0    0.0000
    326 C         143.2348  179.5528  181.5948 C.3      23        0    0.0000
    327 C         144.3233  178.4802  181.4005 C.3      23        0    0.0000
    328 H         141.6828  178.1632  180.8466 H        23        0    0.0000
    329 H         141.1129  179.7754  181.2726 H        23        0    0.0000
    330 H         140.4791  178.8458  183.2622 H        23        0    0.0000
    331 H         141.5417  177.4502  183.0763 H        23        0    0.0000
    332 H         143.2923  178.3999  184.1747 H        23        0    0.0000
    333 H         142.2207  179.1814  186.0282 H        23        0    0.0000
    334 H         142.5164  180.7842  185.3619 H        23        0    0.0000
    335 H         144.3021  180.3940  183.3278 H        23        0    0.0000
    336 H         142.7376  181.1407  182.9754 H        23        0    0.0000
    337 H         143.3501  180.3327  180.8314 H        23        0    0.0000
    338 H         143.9294  177.6090  180.8654 H        23        0    0.0000
    339 H         144.6634  178.1252  182.3806 H        23        0    0.0000
    340 C         145.9171  180.1132  177.0059 C.3      24        0    0.0000
    341 C         146.2181  179.1337  178.1317 C.3      24        0    0.0000
    342 C         145.2399  179.5641  179.2297 C.3      24        0    0.0000
    343 C         145.5563  179.0408  180.6341 C.3      24        0    0.0000
    344 C         145.1329  181.0962  179.1000 C.3      24        0    0.0000
    345 C         145.7745  181.4485  177.7437 C.3      24        0    0.0000
    346 C         145.0818  182.5644  176.9554 C.3      24        0    0.0000
    347 H         146.7184  180.1385  176.2609 H        24        0    0.0000
    348 H         144.9906  179.8212  176.4993 H        24        0    0.0000
    349 H         146.0596  178.0956  177.8237 H        24        0    0.0000
    350 H         147.2624  179.2400  178.4453 H        24        0    0.0000
    351 H         144.2553  179.1545  178.9581 H        24        0    0.0000
    352 H         146.3136  178.2514  180.5598 H        24        0    0.0000
    353 H         146.0011  179.8495  181.2261 H        24        0    0.0000
    354 H         145.6557  181.6289  179.9016 H        24        0    0.0000
    355 H         144.0814  181.3964  179.1643 H        24        0    0.0000
    356 H         146.7934  181.8042  177.9590 H        24        0    0.0000
    357 H         145.2412  182.3975  175.8835 H        24        0    0.0000
    358 H         144.0004  182.5056  177.1261 H        24        0    0.0000
    359 C         148.8792  185.7085  176.7211 C.3      25        0    0.0000
    360 C         147.3780  185.5880  176.5080 C.3      25        0    0.0000
    361 C         147.0643  184.1954  177.0588 C.3      25        0    0.0000
    362 C         145.5682  184.0001  177.3163 C.3      25        0    0.0000
    363 C         147.9527  184.0887  178.3118 C.3      25        0    0.0000
    364 C         149.0923  185.1101  178.1174 C.3      25        0    0.0000
    365 C         150.5050  184.5807  178.3947 C.3      25        0    0.0000
    366 H         149.2176  186.7479  176.6658 H        25        0    0.0000
    367 H         149.4057  185.1431  175.9447 H        25        0    0.0000
    368 H         146.8506  186.3656  177.0739 H        25        0    0.0000
    369 H         147.1048  185.6870  175.4530 H        25        0    0.0000
    370 H         147.4109  183.4501  176.3281 H        25        0    0.0000
    371 H         145.3352  184.2068  178.3676 H        25        0    0.0000
    372 H         145.0004  184.7243  176.7201 H        25        0    0.0000
    373 H         147.3923  184.3477  179.2188 H        25        0    0.0000
    374 H         148.3130  183.0631  178.4441 H        25        0    0.0000
    375 H         148.9165  185.9180  178.8433 H        25        0    0.0000
    376 H         150.4326  183.5748  178.8250 H        25        0    0.0000
    377 H         150.9793  185.2137  179.1542 H        25        0    0.0000
    378 C         152.8754  187.8214  176.2334 C.3      26        0    0.0000
    379 C         151.9285  187.0585  177.1630 C.3      26        0    0.0000
    380 C         151.4086  185.8490  176.3655 C.3      26        0    0.0000
    381 C         151.4283  184.5276  177.1437 C.3      26        0    0.0000
    382 C         152.2962  185.8043  175.1175 C.3      26        0    0.0000
    383 C         152.6243  187.2724  174.8248 C.3      26        0    0.0000
    384 C         151.4800  187.9946  174.0886 C.3      26        0    0.0000
    385 H         152.7421  188.9043  176.3156 H        26        0    0.0000
    386 H         153.9103  187.6018  176.5258 H        26        0    0.0000
    387 H         152.4549  186.7697  178.0794 H        26        0    0.0000
    388 H         151.0885  187.6974  177.4597 H        26        0    0.0000
    389 H         150.3793  186.0639  176.0447 H        26        0    0.0000
    390 H         151.0836  183.7166  176.4911 H        26        0    0.0000
    391 H         152.4512  184.2776  177.4480 H        26        0    0.0000
    392 H         151.8002  185.3042  174.2793 H        26        0    0.0000
    393 H         153.2241  185.2570  175.3281 H        26        0    0.0000
    394 H         153.5404  187.3318  174.2234 H        26        0    0.0000
    395 H         151.7512  189.0301  173.8549 H        26        0    0.0000
    396 H         150.5977  188.0352  174.7383 H        26        0    0.0000
    397 C         151.0818  187.2582  172.7767 C.3      27        0    0.0000
    398 C         151.1794  188.1308  171.5171 C.3      27        0    0.0000
    399 H         151.7767  186.4165  172.6624 H        27        0    0.0000
    400 H         150.0804  186.8253  172.8854 H        27        0    0.0000
    401 H         150.3693  187.9072  170.8132 H        27        0    0.0000
    402 H         151.0531  189.1787  171.8183 H        27        0    0.0000
    403 C         154.3628  185.2167  169.0027 C.3      28        0    0.0000
    404 C         153.5669  186.5114  168.9419 C.3      28        0    0.0000
    405 C         152.9466  186.6170  170.3408 C.3      28        0    0.0000
    406 C         152.5606  188.0348  170.7810 C.3      28        0    0.0000
    407 C         153.9140  185.8717  171.2833 C.3      28        0    0.0000
    408 C         155.0158  185.2805  170.3850 C.3      28        0    0.0000
    409 C         155.5467  183.9175  170.8359 C.3      28        0    0.0000
    410 H         153.6908  184.3536  168.9218 H        28        0    0.0000
    411 H         155.1020  185.1521  168.1984 H        28        0    0.0000
    412 H         154.2420  187.3463  168.7252 H        28        0    0.0000
    413 H         152.8041  186.4855  168.1573 H        28        0    0.0000
    414 H         152.0139  186.0336  170.3235 H        28        0    0.0000
    415 H         153.3403  188.4256  171.4457 H        28        0    0.0000
    416 H         152.5401  188.6897  169.9019 H        28        0    0.0000
    417 H         153.3629  185.0811  171.8078 H        28        0    0.0000
    418 H         154.3482  186.5189  172.0525 H        28        0    0.0000
    419 H         155.8456  186.0008  170.3408 H        28        0    0.0000
    420 H         156.4202  183.6347  170.2366 H        28        0    0.0000
    421 H         155.8879  183.9875  171.8757 H        28        0    0.0000
    422 C         156.8513  179.8770  171.2505 C.3      29        0    0.0000
    423 C         156.4065  181.2946  171.5826 C.3      29        0    0.0000
    424 C         155.0230  181.3803  170.9296 C.3      29        0    0.0000
    425 C         154.4735  182.7971  170.7373 C.3      29        0    0.0000
    426 C         155.1249  180.5278  169.6497 C.3      29        0    0.0000
    427 C         156.4315  179.7216  169.7852 C.3      29        0    0.0000
    428 C         156.3757  178.2814  169.2665 C.3      29        0    0.0000
    429 H         157.9292  179.7446  171.3858 H        29        0    0.0000
    430 H         156.3363  179.1648  171.9046 H        29        0    0.0000
    431 H         156.3629  181.4669  172.6625 H        29        0    0.0000
    432 H         157.1111  182.0141  171.1514 H        29        0    0.0000
    433 H         154.3212  180.8614  171.5998 H        29        0    0.0000
    434 H         153.9857  182.8620  169.7575 H        29        0    0.0000
    435 H         153.6975  182.9856  171.4886 H        29        0    0.0000
    436 H         155.1609  181.1324  168.7371 H        29        0    0.0000
    437 H         154.2384  179.8903  169.5630 H        29        0    0.0000
    438 H         157.1884  180.2426  169.1796 H        29        0    0.0000
    439 H         156.4590  178.2912  168.1733 H        29        0    0.0000
    440 H         157.2454  177.7307  169.6438 H        29        0    0.0000
    441 C         154.4257  174.6706  167.2642 C.3      30        0    0.0000
    442 C         154.0165  175.9649  167.9504 C.3      30        0    0.0000
    443 C         155.0419  176.0935  169.0788 C.3      30        0    0.0000
    444 C         155.0826  177.5076  169.6632 C.3      30        0    0.0000
    445 C         156.3586  175.6260  168.4319 C.3      30        0    0.0000
    446 C         155.9568  174.7546  167.2240 C.3      30        0    0.0000
    447 C         156.6841  173.4087  167.1125 C.3      30        0    0.0000
    448 H         153.9945  174.5857  166.2618 H        30        0    0.0000
    449 H         154.0741  173.8168  167.8534 H        30        0    0.0000
    450 H         154.0908  176.8059  167.2502 H        30        0    0.0000
    451 H         152.9900  175.9221  168.3270 H        30        0    0.0000
    452 H         154.7751  175.3775  169.8697 H        30        0    0.0000
    453 H         154.2055  178.0779  169.3351 H        30        0    0.0000
    454 H         155.0288  177.4493  170.7568 H        30        0    0.0000
    455 H         156.9503  176.4785  168.0757 H        30        0    0.0000
    456 H         156.9785  175.0919  169.1596 H        30        0    0.0000
    457 H         156.2236  175.3262  166.3224 H        30        0    0.0000
    458 H         157.7074  173.5826  166.7590 H        30        0    0.0000
    459 H         156.1876  172.7982  166.3488 H        30        0    0.0000
    460 C         157.9339  169.0468  169.0078 C.3      31        0    0.0000
    461 C         157.4828  170.3865  169.5693 C.3      31        0    0.0000
    462 C         157.6166  171.3394  168.3746 C.3      31        0    0.0000
    463 C         156.7411  172.5973  168.4387 C.3      31        0    0.0000
    464 C         157.4259  170.4635  167.1192 C.3      31        0    0.0000
    465 C         157.2791  169.0168  167.6252 C.3      31        0    0.0000
    466 C         157.9004  167.9542  166.7153 C.3      31        0    0.0000
    467 H         159.0275  169.0171  168.9286 H        31        0    0.0000
    468 H         157.6129  168.2103  169.6360 H        31        0    0.0000
    469 H         156.4483  170.3067  169.9202 H        31        0    0.0000
    470 H         158.0999  170.7033  170.4159 H        31        0    0.0000
    471 H         158.6597  171.6888  168.3577 H        31        0    0.0000
    472 H         155.7209  172.3069  168.7164 H        31        0    0.0000
    473 H         157.1104  173.2504  169.2383 H        31        0    0.0000
    474 H         158.3058  170.5704  166.4725 H        31        0    0.0000
    475 H         156.5559  170.7539  166.5209 H        31        0    0.0000
    476 H         156.2077  168.8062  167.7561 H        31        0    0.0000
    477 H         158.3223  167.1406  167.3173 H        31        0    0.0000
    478 H         157.1170  167.5094  166.0903 H        31        0    0.0000
    479 C         159.0073  168.5341  165.7907 C.3      32        0    0.0000
    480 C         159.9991  167.4837  165.2704 C.3      32        0    0.0000
    481 H         158.4974  168.9784  164.9263 H        32        0    0.0000
    482 H         159.5258  169.3527  166.3035 H        32        0    0.0000
    483 H         160.1823  166.7033  166.0182 H        32        0    0.0000
    484 H         159.5453  166.9871  164.4033 H        32        0    0.0000
    485 C         164.0645  166.9975  167.0236 C.3      33        0    0.0000
    486 C         162.6185  166.7739  166.5836 C.3      33        0    0.0000
    487 C         162.5469  167.1539  165.0945 C.3      33        0    0.0000
    488 C         161.3649  168.0822  164.7856 C.3      33        0    0.0000
    489 C         163.9214  167.7646  164.7802 C.3      33        0    0.0000
    490 C         164.8927  167.0628  165.7378 C.3      33        0    0.0000
    491 C         165.3360  165.6635  165.2730 C.3      33        0    0.0000
    492 H         164.1316  167.9606  167.5457 H        33        0    0.0000
    493 H         164.4062  166.2270  167.7218 H        33        0    0.0000
    494 H         161.9346  167.3604  167.2068 H        33        0    0.0000
    495 H         162.3434  165.7198  166.7077 H        33        0    0.0000
    496 H         162.4347  166.2266  164.5151 H        33        0    0.0000
    497 H         161.3155  168.2912  163.7107 H        33        0    0.0000
    498 H         161.5194  169.0445  165.2884 H        33        0    0.0000
    499 H         164.1932  167.6432  163.7271 H        33        0    0.0000
    500 H         163.9185  168.8408  164.9969 H        33        0    0.0000
    501 H         165.7802  167.6874  165.9011 H        33        0    0.0000
    502 H         164.5049  165.1141  164.8179 H        33        0    0.0000
    503 H         165.6581  165.0793  166.1436 H        33        0    0.0000
    504 C         166.8360  162.6349  162.1370 C.3      34        0    0.0000
    505 C         166.0172  163.7592  162.7526 C.3      34        0    0.0000
    506 C         166.9698  164.3446  163.7971 C.3      34        0    0.0000
    507 C         166.5244  165.7298  164.2724 C.3      34        0    0.0000
    508 C         168.3419  164.3138  163.0992 C.3      34        0    0.0000
    509 C         168.2336  163.2492  161.9881 C.3      34        0    0.0000
    510 C         169.3889  162.2420  161.9267 C.3      34        0    0.0000
    511 H         166.4269  162.3113  161.1747 H        34        0    0.0000
    512 H         166.8342  161.7702  162.8094 H        34        0    0.0000
    513 H         165.7605  164.5040  161.9894 H        34        0    0.0000
    514 H         165.0881  163.3922  163.1994 H        34        0    0.0000
    515 H         167.0054  163.6568  164.6545 H        34        0    0.0000
    516 H         167.3634  166.2562  164.7426 H        34        0    0.0000
    517 H         166.2220  166.3302  163.4061 H        34        0    0.0000
    518 H         168.5768  165.2834  162.6427 H        34        0    0.0000
    519 H         169.1379  164.1021  163.8208 H        34        0    0.0000
    520 H         168.2454  163.7923  161.0312 H        34        0    0.0000
    521 H         169.6334  162.0408  160.8770 H        34        0    0.0000
    522 H         169.0551  161.2912  162.3592 H        34        0    0.0000
    523 C         173.7150  162.5359  160.4320 C.3      35        0    0.0000
    524 C         172.1964  162.5416  160.6259 C.3      35        0    0.0000
    525 C         171.9445  162.0775  162.0665 C.3      35        0    0.0000
    526 C         170.6796  162.6989  162.6654 C.3      35        0    0.0000
    527 C         173.2436  162.4548  162.7861 C.3      35        0    0.0000
    528 C         174.3174  162.0686  161.7635 C.3      35        0    0.0000
    529 C         175.6966  162.6801  162.0248 C.3      35        0    0.0000
    530 H         174.0114  161.8724  159.6125 H        35        0    0.0000
    531 H         174.0534  163.5458  160.1709 H        35        0    0.0000
    532 H         171.6988  161.8810  159.9078 H        35        0    0.0000
    533 H         171.8106  163.5541  160.4572 H        35        0    0.0000
    534 H         171.8514  160.9817  162.0621 H        35        0    0.0000
    535 H         170.7487  163.7916  162.6030 H        35        0    0.0000
    536 H         170.5996  162.4475  163.7294 H        35        0    0.0000
    537 H         173.3618  161.9108  163.7286 H        35        0    0.0000
    538 H         173.2751  163.5302  163.0019 H        35        0    0.0000
    539 H         174.3982  160.9721  161.7369 H        35        0    0.0000
    540 H         175.6080  163.7595  162.1952 H        35        0    0.0000
    541 H         176.3243  162.5511  161.1350 H        35        0    0.0000
    542 C         174.0648  160.7113  165.9189 C.3      36        0    0.0000
    543 C         174.4685  161.7952  164.9291 C.3      36        0    0.0000
    544 C         175.5244  161.0950  164.0675 C.3      36        0    0.0000
    545 C         176.4147  162.0229  163.2353 C.3      36        0    0.0000
    546 C         176.2679  160.1462  165.0280 C.3      36        0    0.0000
    547 C         175.4082  160.0842  166.3057 C.3      36        0    0.0000
    548 C         175.3232  158.7107  166.9784 C.3      36        0    0.0000
    549 H         173.5390  161.1242  166.7853 H        36        0    0.0000
    550 H         173.3999  159.9916  165.4286 H        36        0    0.0000
    551 H         173.6180  162.1436  164.3349 H        36        0    0.0000
    552 H         174.8810  162.6544  165.4692 H        36        0    0.0000
    553 H         174.9816  160.4586  163.3522 H        36        0    0.0000
    554 H         176.8104  162.8146  163.8825 H        36        0    0.0000
    555 H         177.2781  161.4561  162.8673 H        36        0    0.0000
    556 H         177.2738  160.4985  165.2805 H        36        0    0.0000
    557 H         176.3938  159.1680  164.5517 H        36        0    0.0000
    558 H         175.8777  160.7610  167.0355 H        36        0    0.0000
    559 H         175.0347  158.8433  168.0279 H        36        0    0.0000
    560 H         174.5250  158.1279  166.5036 H        36        0    0.0000
    561 C         179.7173  159.9657  167.0411 C.3      37        0    0.0000
    562 C         178.1872  159.9543  166.9992 C.3      37        0    0.0000
    563 C         177.7770  158.6737  166.2501 C.3      37        0    0.0000
    564 C         176.6450  157.8874  166.9227 C.3      37        0    0.0000
    565 C         179.0712  157.8602  166.1472 C.3      37        0    0.0000
    566 C         180.1795  158.9120  166.0288 C.3      37        0    0.0000
    567 C         180.3138  159.4654  164.5975 C.3      37        0    0.0000
    568 H         180.1224  160.9648  166.8546 H        37        0    0.0000
    569 H         180.0453  159.6680  168.0453 H        37        0    0.0000
    570 H         177.7840  159.9997  168.0169 H        37        0    0.0000
    571 H         177.8137  160.8346  166.4632 H        37        0    0.0000
    572 H         177.4678  158.9532  165.2328 H        37        0    0.0000
    573 H         176.4576  156.9661  166.3584 H        37        0    0.0000
    574 H         176.9372  157.5859  167.9352 H        37        0    0.0000
    575 H         179.0525  157.1652  165.3015 H        37        0    0.0000
    576 H         179.2242  157.2687  167.0592 H        37        0    0.0000
    577 H         181.1361  158.4753  166.3428 H        37        0    0.0000
    578 H         180.4747  160.5491  164.6057 H        37        0    0.0000
    579 H         179.3815  159.2859  164.0489 H        37        0    0.0000
    580 C         184.8458  158.7506  165.5450 C.3      38        0    0.0000
    581 C         183.3279  158.7004  165.6277 C.3      38        0    0.0000
    582 C         182.8768  159.2178  164.2559 C.3      38        0    0.0000
    583 C         181.4734  158.7787  163.8192 C.3      38        0    0.0000
    584 C         184.0162  158.8595  163.2797 C.3      38        0    0.0000
    585 C         185.1297  158.2280  164.1352 C.3      38        0    0.0000
    586 C         186.5529  158.5530  163.6749 C.3      38        0    0.0000
    587 H         185.1987  159.7823  165.6632 H        38        0    0.0000
    588 H         185.3187  158.1360  166.3172 H        38        0    0.0000
    589 H         183.0049  157.6692  165.8070 H        38        0    0.0000
    590 H         182.9426  159.3185  166.4447 H        38        0    0.0000
    591 H         182.8518  160.3159  164.3192 H        38        0    0.0000
    592 H         181.3514  158.9894  162.7500 H        38        0    0.0000
    593 H         181.3851  157.6922  163.9372 H        38        0    0.0000
    594 H         184.3654  159.7756  162.7873 H        38        0    0.0000
    595 H         183.7021  158.1732  162.4863 H        38        0    0.0000
    596 H         184.9847  157.1378  164.1365 H        38        0    0.0000
    597 H         187.1849  157.6594  163.7405 H        38        0    0.0000
    598 H         186.5336  158.8479  162.6190 H        38        0    0.0000
    599 C         187.1142  158.9706  168.2304 C.3      39        0    0.0000
    600 C         186.4731  158.8900  166.8521 C.3      39        0    0.0000
    601 C         187.6184  159.2954  165.9184 C.3      39        0    0.0000
    602 C         187.1998  159.6996  164.5015 C.3      39        0    0.0000
    603 C         188.4245  160.3514  166.6998 C.3      39        0    0.0000
    604 C         187.9242  160.2690  168.1552 C.3      39        0    0.0000
    605 C         188.9992  160.4366  169.2335 C.3      39        0    0.0000
    606 H         186.3657  158.9985  169.0284 H        39        0    0.0000
    607 H         187.7526  158.0953  168.3933 H        39        0    0.0000
    608 H         186.1001  157.8848  166.6328 H        39        0    0.0000
    609 H         185.6290  159.5861  166.7953 H        39        0    0.0000
    610 H         188.2703  158.4151  165.8124 H        39        0    0.0000
    611 H         186.4906  160.5337  164.5619 H        39        0    0.0000
    612 H         188.0781  160.0714  163.9606 H        39        0    0.0000
    613 H         188.2764  161.3676  166.3188 H        39        0    0.0000
    614 H         189.4948  160.1389  166.6048 H        39        0    0.0000
    615 H         187.2126  161.0972  168.2921 H        39        0    0.0000
    616 H         188.5594  160.9407  170.1022 H        39        0    0.0000
    617 H         189.3224  159.4459  169.5744 H        39        0    0.0000
    618 C         189.5842  163.8198  166.1872 C.3      40        0    0.0000
    619 C         188.9949  162.7128  167.0648 C.3      40        0    0.0000
    620 C         190.1256  161.6980  167.3116 C.3      40        0    0.0000
    621 C         190.2515  161.2396  168.7698 C.3      40        0    0.0000
    622 C         191.3893  162.4050  166.8111 C.3      40        0    0.0000
    623 C         190.9087  163.2733  165.6434 C.3      40        0    0.0000
    624 C         190.7420  162.4670  164.3414 C.3      40        0    0.0000
    625 H         188.8847  164.1379  165.4083 H        40        0    0.0000
    626 H         189.7876  164.6971  166.8146 H        40        0    0.0000
    627 H         188.5974  163.1409  167.9916 H        40        0    0.0000
    628 H         188.1603  162.2220  166.5507 H        40        0    0.0000
    629 H         189.9485  160.8218  166.6715 H        40        0    0.0000
    630 H         191.1345  160.5978  168.8737 H        40        0    0.0000
    631 H         190.4053  162.1009  169.4300 H        40        0    0.0000
    632 H         192.1689  161.6937  166.5194 H        40        0    0.0000
    633 H         191.8046  163.0477  167.5982 H        40        0    0.0000
    634 H         191.6197  164.0925  165.4771 H        40        0    0.0000
    635 H         190.1372  163.0156  163.6109 H        40        0    0.0000
    636 H         190.2106  161.5326  164.5576 H        40        0    0.0000
    637 C         195.1429  160.9130  165.4900 C.3      41        0    0.0000
    638 C         193.6178  161.0415  165.5126 C.3      41        0    0.0000
    639 C         193.2700  162.2996  164.6968 C.3      41        0    0.0000
    640 C         192.1159  162.1066  163.7054 C.3      41        0    0.0000
    641 C         194.5810  162.6773  163.9997 C.3      41        0    0.0000
    642 C         195.6768  162.2581  164.9855 C.3      41        0    0.0000
    643 C         195.8799  163.2896  166.1116 C.3      41        0    0.0000
    644 H         195.5413  160.6175  166.4652 H        41        0    0.0000
    645 H         195.4205  160.1258  164.7773 H        41        0    0.0000
    646 H         193.1590  160.1322  165.1089 H        41        0    0.0000
    647 H         193.2598  161.1552  166.5425 H        41        0    0.0000
    648 H         193.0122  163.1055  165.3988 H        41        0    0.0000
    649 H         192.2751  162.7511  162.8327 H        41        0    0.0000
    650 H         192.0952  161.0741  163.3381 H        41        0    0.0000
    651 H         194.6197  163.7422  163.7484 H        41        0    0.0000
    652 H         194.6935  162.1119  163.0656 H        41        0    0.0000
    653 H         196.6218  162.1152  164.4463 H        41        0    0.0000
    654 H         196.5790  162.9167  166.8683 H        41        0    0.0000
    655 H         194.9246  163.4663  166.6199 H        41        0    0.0000
    656 C         196.3405  162.8492  162.3643 C.3      42        0    0.0000
    657 C         195.5356  163.6792  163.3631 C.3      42        0    0.0000
    658 C         196.5271  164.6464  164.0329 C.3      42        0    0.0000
    659 C         196.3948  164.6513  165.5615 C.3      42        0    0.0000
    660 C         197.9082  164.2041  163.5254 C.3      42        0    0.0000
    661 C         197.6464  163.6140  162.1339 C.3      42        0    0.0000
    662 C         197.5022  164.6665  161.0195 C.3      42        0    0.0000
    663 H         196.5675  161.8743  162.8145 H        42        0    0.0000
    664 H         195.7810  162.6573  161.4433 H        42        0    0.0000
    665 H         195.0268  163.0258  164.0803 H        42        0    0.0000
    666 H         194.7592  164.2513  162.8417 H        42        0    0.0000
    667 H         196.3212  165.6569  163.6526 H        42        0    0.0000
    668 H         195.7242  165.4565  165.8832 H        42        0    0.0000
    669 H         197.3745  164.8575  166.0090 H        42        0    0.0000
    670 H         198.6252  165.0308  163.5136 H        42        0    0.0000
    671 H         198.3201  163.4211  164.1755 H        42        0    0.0000
    672 H         198.4445  162.9102  161.8652 H        42        0    0.0000
    673 H         197.2149  165.6413  161.4282 H        42        0    0.0000
    674 H         196.6978  164.3631  160.3385 H        42        0    0.0000
    675 C         198.8062  164.8169  160.1860 C.3      43        0    0.0000
    676 C         198.6030  164.6475  158.6736 C.3      43        0    0.0000
    677 H         199.1829  165.8316  160.3674 H        43        0    0.0000
    678 H         199.5690  164.1270  160.5657 H        43        0    0.0000
    679 H         197.5512  164.4545  158.4316 H        43        0    0.0000
    680 H         198.8684  165.5944  158.1862 H        43        0    0.0000
    681 C         199.5584  163.7462  154.2352 C.3      44        0    0.0000
    682 C         198.8107  163.8647  155.5559 C.3      44        0    0.0000
    683 C         199.9397  163.8370  156.5914 C.3      44        0    0.0000
    684 C         199.5054  163.5386  158.0296 C.3      44        0    0.0000
    685 C         201.0027  162.8861  156.0074 C.3      44        0    0.0000
    686 C         200.6094  162.6716  154.5327 C.3      44        0    0.0000
    687 C         201.7754  162.6002  153.5419 C.3      44        0    0.0000
    688 H         198.8951  163.4565  153.4144 H        44        0    0.0000
    689 H         200.0144  164.7092  153.9804 H        44        0    0.0000
    690 H         198.2237  164.7866  155.6120 H        44        0    0.0000
    691 H         198.1255  163.0175  155.6704 H        44        0    0.0000
    692 H         200.3870  164.8424  156.6024 H        44        0    0.0000
    693 H         198.9616  162.5867  158.0492 H        44        0    0.0000
    694 H         200.3975  163.4046  158.6529 H        44        0    0.0000
    695 H         201.0374  161.9194  156.5212 H        44        0    0.0000
    696 H         201.9962  163.3328  156.1225 H        44        0    0.0000
    697 H         200.0954  161.6999  154.4809 H        44        0    0.0000
    698 H         201.7998  161.6019  153.0892 H        44        0    0.0000
    699 H         201.5971  163.3115  152.7268 H        44        0    0.0000
    700 C         204.8780  161.6686  151.0413 C.3      45        0    0.0000
    701 C         204.3130  161.4196  152.4421 C.3      45        0    0.0000
    702 C         204.3059  162.7799  153.1517 C.3      45        0    0.0000
    703 C         203.1694  162.8988  154.1710 C.3      45        0    0.0000
    704 C         204.2298  163.7777  151.9913 C.3      45        0    0.0000
    705 C         205.1889  163.1691  150.9628 C.3      45        0    0.0000
    706 C         205.0363  163.7217  149.5429 C.3      45        0    0.0000
    707 H         205.7781  161.0711  150.8607 H        45        0    0.0000
    708 H         204.1357  161.3728  150.2903 H        45        0    0.0000
    709 H         204.9176  160.6919  152.9940 H        45        0    0.0000
    710 H         203.3012  161.0050  152.3592 H        45        0    0.0000
    711 H         205.2729  162.9062  153.6601 H        45        0    0.0000
    712 H         203.1562  163.9155  154.5815 H        45        0    0.0000
    713 H         203.3422  162.2198  155.0141 H        45        0    0.0000
    714 H         204.5397  164.7826  152.2950 H        45        0    0.0000
    715 H         203.2101  163.8372  151.5905 H        45        0    0.0000
    716 H         206.2206  163.3239  151.3107 H        45        0    0.0000
    717 H         205.2575  164.7953  149.5268 H        45        0    0.0000
    718 H         203.9942  163.6088  149.2207 H        45        0    0.0000
    719 C         206.6239  165.2841  145.5839 C.3      46        0    0.0000
    720 C         206.1297  165.0856  147.0087 C.3      46        0    0.0000
    721 C         205.9082  163.5707  147.1035 C.3      46        0    0.0000
    722 C         205.9508  162.9899  148.5226 C.3      46        0    0.0000
    723 C         206.8969  162.9410  146.1007 C.3      46        0    0.0000
    724 C         207.5941  164.1167  145.3919 C.3      46        0    0.0000
    725 C         207.9186  163.8728  143.9160 C.3      46        0    0.0000
    726 H         205.7857  165.2223  144.8792 H        46        0    0.0000
    727 H         207.1124  166.2543  145.4512 H        46        0    0.0000
    728 H         206.8920  165.4366  147.7127 H        46        0    0.0000
    729 H         205.2102  165.6463  147.2040 H        46        0    0.0000
    730 H         204.8982  163.3690  146.7167 H        46        0    0.0000
    731 H         205.6583  161.9338  148.4837 H        46        0    0.0000
    732 H         206.9837  163.0163  148.8896 H        46        0    0.0000
    733 H         206.3369  162.3234  145.3875 H        46        0    0.0000
    734 H         207.6333  162.2856  146.5774 H        46        0    0.0000
    735 H         208.5208  164.3457  145.9380 H        46        0    0.0000
    736 H         206.9971  163.8677  143.3219 H        46        0    0.0000
    737 H         208.5318  164.6997  143.5384 H        46        0    0.0000
    738 C         210.0263  161.7508  147.1530 C.3      47        0    0.0000
    739 C         209.2852  162.6796  146.2013 C.3      47        0    0.0000
    740 C         209.0508  161.7942  144.9731 C.3      47        0    0.0000
    741 C         208.6834  162.5390  143.6861 C.3      47        0    0.0000
    742 C         210.2934  160.8867  144.8839 C.3      47        0    0.0000
    743 C         211.0252  161.0434  146.2313 C.3      47        0    0.0000
    744 C         211.6491  159.7638  146.7966 C.3      47        0    0.0000
    745 H         210.5263  162.3019  147.9555 H        47        0    0.0000
    746 H         209.3199  161.0496  147.6106 H        47        0    0.0000
    747 H         208.3467  163.0421  146.6321 H        47        0    0.0000
    748 H         209.9113  163.5483  145.9697 H        47        0    0.0000
    749 H         208.1982  161.1398  145.2096 H        47        0    0.0000
    750 H         209.5990  162.7509  143.1212 H        47        0    0.0000
    751 H         208.0690  161.8848  143.0562 H        47        0    0.0000
    752 H         210.9671  161.1665  144.0668 H        47        0    0.0000
    753 H         209.9804  159.8557  144.6868 H        47        0    0.0000
    754 H         211.8546  161.7463  146.0605 H        47        0    0.0000
    755 H         211.3653  158.9163  146.1615 H        47        0    0.0000
    756 H         212.7414  159.8444  146.7447 H        47        0    0.0000
    757 C         213.5435  157.2462  150.3162 C.3      48        0    0.0000
    758 C         213.3543  158.3548  149.2921 C.3      48        0    0.0000
    759 C         211.8951  158.1886  148.8493 C.3      48        0    0.0000
    760 C         211.2399  159.4471  148.2664 C.3      48        0    0.0000
    761 C         211.1635  157.5580  150.0520 C.3      48        0    0.0000
    762 C         212.2420  157.2954  151.1190 C.3      48        0    0.0000
    763 C         212.0269  156.0268  151.9480 C.3      48        0    0.0000
    764 H         213.6611  156.2794  149.8117 H        48        0    0.0000
    765 H         214.4238  157.4145  150.9441 H        48        0    0.0000
    766 H         213.5340  159.3258  149.7663 H        48        0    0.0000
    767 H         214.0498  158.2586  148.4526 H        48        0    0.0000
    768 H         211.8867  157.4355  148.0472 H        48        0    0.0000
    769 H         210.1501  159.3337  148.3104 H        48        0    0.0000
    770 H         211.4918  160.3073  148.8978 H        48        0    0.0000
    771 H         210.6878  156.6231  149.7302 H        48        0    0.0000
    772 H         210.3691  158.1956  150.4541 H        48        0    0.0000
    773 H         212.2826  158.1677  151.7876 H        48        0    0.0000
    774 H         212.5022  155.1692  151.4574 H        48        0    0.0000
    775 H         212.5168  156.1432  152.9221 H        48        0    0.0000
    776 C         209.9864  155.8824  155.4153 C.3      49        0    0.0000
    777 C         211.0196  155.1063  154.5941 C.3      49        0    0.0000
    778 C         210.3172  154.6775  153.3011 C.3      49        0    0.0000
    779 C         210.5220  155.7143  152.1805 C.3      49        0    0.0000
    780 C         208.8628  154.5199  153.7627 C.3      49        0    0.0000
    781 C         208.6335  155.7029  154.7067 C.3      49        0    0.0000
    782 C         207.4476  155.4742  155.6507 C.3      49        0    0.0000
    783 H         209.9731  155.5057  156.4444 H        49        0    0.0000
    784 H         210.2508  156.9450  155.4622 H        49        0    0.0000
    785 H         211.3194  154.2130  155.1566 H        49        0    0.0000
    786 H         211.9268  155.6933  154.4184 H        49        0    0.0000
    787 H         210.7120  153.7094  152.9669 H        49        0    0.0000
    788 H         210.0156  156.6473  152.4560 H        49        0    0.0000
    789 H         210.0692  155.3789  151.2413 H        49        0    0.0000
    790 H         208.7551  153.5725  154.3070 H        49        0    0.0000
    791 H         208.1412  154.5088  152.9404 H        49        0    0.0000
    792 H         208.4393  156.5983  154.0996 H        49        0    0.0000
    793 H         206.5081  155.7447  155.1552 H        49        0    0.0000
    794 H         207.5464  156.1291  156.5245 H        49        0    0.0000
    795 C         207.3726  153.9987  156.1384 C.3      50        0    0.0000
    796 C         206.7714  153.8353  157.5417 C.3      50        0    0.0000
    797 H         206.7300  153.4627  155.4282 H        50        0    0.0000
    798 H         208.3649  153.5372  156.0733 H        50        0    0.0000
    799 H         207.1949  154.5627  158.2442 H        50        0    0.0000
    800 H         205.6967  154.0490  157.4787 H        50        0    0.0000
    801 C         204.2273  151.6817  160.7085 C.3      51        0    0.0000
    802 C         204.7274  152.4904  159.5214 C.3      51        0    0.0000
    803 C         206.2313  152.1897  159.4907 C.3      51        0    0.0000
    804 C         206.9116  152.3888  158.1303 C.3      51        0    0.0000
    805 C         206.3887  150.7858  160.1103 C.3      51        0    0.0000
    806 C         204.9807  150.3578  160.5631 C.3      51        0    0.0000
    807 C         204.9462  149.5298  161.8500 C.3      51        0    0.0000
    808 H         204.4884  152.1846  161.6477 H        51        0    0.0000
    809 H         203.1419  151.5451  160.6831 H        51        0    0.0000
    810 H         204.2204  152.1550  158.6102 H        51        0    0.0000
    811 H         204.5267  153.5596  159.6418 H        51        0    0.0000
    812 H         206.7140  152.8944  160.1842 H        51        0    0.0000
    813 H         207.9777  152.1514  158.2276 H        51        0    0.0000
    814 H         206.4945  151.6721  157.4129 H        51        0    0.0000
    815 H         207.0779  150.8468  160.9618 H        51        0    0.0000
    816 H         206.8099  150.0535  159.4136 H        51        0    0.0000
    817 H         204.5168  149.7857  159.7464 H        51        0    0.0000
    818 H         204.6652  150.1631  162.6998 H        51        0    0.0000
    819 H         204.1723  148.7579  161.7635 H        51        0    0.0000
    820 C         206.0454  145.7109  163.1085 C.3      52        0    0.0000
    821 C         205.2822  146.9700  163.5284 C.3      52        0    0.0000
    822 C         206.2950  148.1201  163.5138 C.3      52        0    0.0000
    823 C         206.3065  148.8409  162.1525 C.3      52        0    0.0000
    824 C         207.6038  147.4000  163.8623 C.3      52        0    0.0000
    825 C         207.5359  146.0875  163.0774 C.3      52        0    0.0000
    826 C         208.4733  145.0175  163.6484 C.3      52        0    0.0000
    827 H         205.8336  144.8980  163.8123 H        52        0    0.0000
    828 H         205.7193  145.3751  162.1174 H        52        0    0.0000
    829 H         204.9065  146.8313  164.5502 H        52        0    0.0000
    830 H         204.4120  147.1528  162.8897 H        52        0    0.0000
    831 H         206.0453  148.8457  164.2986 H        52        0    0.0000
    832 H         206.5056  148.1100  161.3595 H        52        0    0.0000
    833 H         207.1107  149.5827  162.1025 H        52        0    0.0000
    834 H         207.6308  147.1971  164.9409 H        52        0    0.0000
    835 H         208.5002  147.9767  163.6152 H        52        0    0.0000
    836 H         207.8196  146.2917  162.0353 H        52        0    0.0000
    837 H         209.4885  145.1518  163.2572 H        52        0    0.0000
    838 H         208.1356  144.0264  163.3229 H        52        0    0.0000
    839 C         208.5068  145.0479  165.2034 C.3      53        0    0.0000
    840 C         208.8130  143.6882  165.8475 C.3      53        0    0.0000
    841 H         207.5101  145.3652  165.5357 H        53        0    0.0000
    842 H         209.2101  145.8174  165.5428 H        53        0    0.0000
    843 H         208.1289  142.9457  165.4170 H        53        0    0.0000
    844 H         209.8294  143.3535  165.6087 H        53        0    0.0000
    845 C         210.7328  140.9045  168.8516 C.3      54        0    0.0000
    846 C         210.4851  142.0153  167.8425 C.3      54        0    0.0000
    847 C         208.9951  142.3140  168.0205 C.3      54        0    0.0000
    848 C         208.5973  143.6557  167.4003 C.3      54        0    0.0000
    849 C         208.7822  142.2198  169.5425 C.3      54        0    0.0000
    850 C         209.9403  141.3570  170.0846 C.3      54        0    0.0000
    851 C         209.5307  140.2358  171.0479 C.3      54        0    0.0000
    852 H         211.7979  140.7830  169.0722 H        54        0    0.0000
    853 H         210.3638  139.9551  168.4489 H        54        0    0.0000
    854 H         211.0966  142.8927  168.0859 H        54        0    0.0000
    855 H         210.7254  141.7025  166.8218 H        54        0    0.0000
    856 H         208.4224  141.5054  167.5434 H        54        0    0.0000
    857 H         207.5474  143.8793  167.6238 H        54        0    0.0000
    858 H         209.1931  144.4560  167.8552 H        54        0    0.0000
    859 H         208.8257  143.2108  170.0113 H        54        0    0.0000
    860 H         207.7945  141.8049  169.7697 H        54        0    0.0000
    861 H         210.5939  142.0328  170.6562 H        54        0    0.0000
    862 H         208.4653  140.3391  171.2856 H        54        0    0.0000
    863 H         210.0763  140.3601  171.9910 H        54        0    0.0000
    864 C         207.0251  137.5682  168.2292 C.3      55        0    0.0000
    865 C         207.7975  138.7207  168.8526 C.3      55        0    0.0000
    866 C         208.5293  138.0660  170.0311 C.3      55        0    0.0000
    867 C         209.7890  138.7994  170.5090 C.3      55        0    0.0000
    868 C         208.7350  136.5915  169.6271 C.3      55        0    0.0000
    869 C         208.0346  136.4190  168.2669 C.3      55        0    0.0000
    870 C         207.3670  135.0574  168.0588 C.3      55        0    0.0000
    871 H         206.1382  137.3359  168.8313 H        55        0    0.0000
    872 H         206.6974  137.7980  167.2108 H        55        0    0.0000
    873 H         208.4920  139.1373  168.1150 H        55        0    0.0000
    874 H         207.1342  139.5272  169.1804 H        55        0    0.0000
    875 H         207.8311  138.0638  170.8814 H        55        0    0.0000
    876 H         210.2662  138.2084  171.2999 H        55        0    0.0000
    877 H         210.5068  138.8547  169.6820 H        55        0    0.0000
    878 H         208.2834  135.9461  170.3907 H        55        0    0.0000
    879 H         209.7906  136.3086  169.5570 H        55        0    0.0000
    880 H         208.7781  136.5877  167.4743 H        55        0    0.0000
    881 H         206.5246  134.9394  168.7507 H        55        0    0.0000
    882 H         206.9508  135.0090  167.0454 H        55        0    0.0000
    883 C         208.3557  133.8730  168.2492 C.3      56        0    0.0000
    884 C         208.3788  132.8846  167.0746 C.3      56        0    0.0000
    885 H         208.0300  133.3294  169.1453 H        56        0    0.0000
    886 H         209.3586  134.2601  168.4647 H        56        0    0.0000
    887 H         207.5641  132.1637  167.2202 H        56        0    0.0000
    888 H         208.1822  133.3916  166.1227 H        56        0    0.0000
    889 C         210.4260  130.2281  170.1162 C.3      57        0    0.0000
    890 C         209.5373  131.2588  169.4156 C.3      57        0    0.0000
    891 C         210.4022  131.9173  168.3259 C.3      57        0    0.0000
    892 C         209.7044  132.0539  166.9669 C.3      57        0    0.0000
    893 C         211.6565  131.0407  168.2521 C.3      57        0    0.0000
    894 C         211.8632  130.5416  169.6862 C.3      57        0    0.0000
    895 C         212.5473  131.5924  170.5811 C.3      57        0    0.0000
    896 H         210.2785  130.2328  171.2003 H        57        0    0.0000
    897 H         210.1541  129.2265  169.7591 H        57        0    0.0000
    898 H         208.6434  130.7705  169.0123 H        57        0    0.0000
    899 H         209.1974  132.0177  170.1300 H        57        0    0.0000
    900 H         210.7026  132.9140  168.6794 H        57        0    0.0000
    901 H         210.3759  132.5599  166.2631 H        57        0    0.0000
    902 H         209.4893  131.0651  166.5458 H        57        0    0.0000
    903 H         212.5197  131.5918  167.8651 H        57        0    0.0000
    904 H         211.4852  130.1839  167.5877 H        57        0    0.0000
    905 H         212.4660  129.6247  169.6733 H        57        0    0.0000
    906 H         211.8078  132.2207  171.0898 H        57        0    0.0000
    907 H         213.1573  132.2584  169.9592 H        57        0    0.0000
    908 C         213.4773  130.9321  171.6398 C.3      58        0    0.0000
    909 C         212.7704  130.5753  172.9553 C.3      58        0    0.0000
    910 H         213.8556  130.0033  171.1938 H        58        0    0.0000
    911 H         214.3493  131.5727  171.8165 H        58        0    0.0000
    912 H         213.4294  130.7317  173.8174 H        58        0    0.0000
    913 H         211.9211  131.2589  173.0816 H        58        0    0.0000
    914 C         213.4030  126.6631  174.8004 C.3      59        0    0.0000
    915 C         214.0861  127.8211  174.0678 C.3      59        0    0.0000
    916 C         213.2854  128.0580  172.7826 C.3      59        0    0.0000
    917 C         212.1891  129.1195  172.9917 C.3      59        0    0.0000
    918 C         212.7572  126.6523  172.4695 C.3      59        0    0.0000
    919 C         212.3566  126.0845  173.8335 C.3      59        0    0.0000
    920 C         212.2758  124.5537  173.8270 C.3      59        0    0.0000
    921 H         214.1522  125.9211  175.0992 H        59        0    0.0000
    922 H         212.9164  127.0195  175.7154 H        59        0    0.0000
    923 H         215.1087  127.5202  173.8070 H        59        0    0.0000
    924 H         214.1657  128.7130  174.6975 H        59        0    0.0000
    925 H         213.9575  128.3933  171.9822 H        59        0    0.0000
    926 H         211.7169  128.9622  173.9691 H        59        0    0.0000
    927 H         211.3957  129.0242  172.2427 H        59        0    0.0000
    928 H         213.5632  126.0510  172.0291 H        59        0    0.0000
    929 H         211.9211  126.6458  171.7639 H        59        0    0.0000
    930 H         211.3726  126.4930  174.1036 H        59        0    0.0000
    931 H         212.6046  124.1504  174.7918 H        59        0    0.0000
    932 H         212.9588  124.1564  173.0668 H        59        0    0.0000
    933 C         211.2347  120.3988  174.4388 C.3      60        0    0.0000
    934 C         211.2373  121.4948  173.3841 C.3      60        0    0.0000
    935 C         210.5169  122.6593  174.0754 C.3      60        0    0.0000
    936 C         210.8364  124.0517  173.5166 C.3      60        0    0.0000
    937 C         210.7796  122.4754  175.5843 C.3      60        0    0.0000
    938 C         211.5665  121.1595  175.7243 C.3      60        0    0.0000
    939 C         211.2358  120.3460  176.9780 C.3      60        0    0.0000
    940 H         210.2438  119.9324  174.4994 H        60        0    0.0000
    941 H         211.9685  119.6173  174.2192 H        60        0    0.0000
    942 H         212.2701  121.7463  173.1200 H        60        0    0.0000
    943 H         210.7245  121.1823  172.4690 H        60        0    0.0000
    944 H         209.4381  122.5051  173.9238 H        60        0    0.0000
    945 H         210.6960  124.0394  172.4292 H        60        0    0.0000
    946 H         210.1150  124.7731  173.9183 H        60        0    0.0000
    947 H         209.8180  122.4206  176.1098 H        60        0    0.0000
    948 H         211.3361  123.3077  176.0281 H        60        0    0.0000
    949 H         212.6399  121.3990  175.7152 H        60        0    0.0000
    950 H         212.0922  120.3412  177.6626 H        60        0    0.0000
    951 H         210.4079  120.8259  177.5133 H        60        0    0.0000
    952 C         210.2409  116.8239  179.7551 C.3      61        0    0.0000
    953 C         210.4010  118.1776  179.0582 C.3      61        0    0.0000
    954 C         211.2000  117.9100  177.7760 C.3      61        0    0.0000
    955 C         210.8347  118.8805  176.6494 C.3      61        0    0.0000
    956 C         210.8942  116.4389  177.4757 C.3      61        0    0.0000
    957 C         210.9499  115.7947  178.8649 C.3      61        0    0.0000
    958 C         210.3059  114.4083  178.9516 C.3      61        0    0.0000
    959 H         210.6741  116.8378  180.7610 H        61        0    0.0000
    960 H         209.1744  116.5932  179.8639 H        61        0    0.0000
    961 H         210.9180  118.8993  179.6998 H        61        0    0.0000
    962 H         209.4108  118.5925  178.8348 H        61        0    0.0000
    963 H         212.2698  118.0046  178.0129 H        61        0    0.0000
    964 H         209.7522  118.8453  176.4781 H        61        0    0.0000
    965 H         211.3131  118.5726  175.7122 H        61        0    0.0000
    966 H         211.6276  116.0001  176.7917 H        61        0    0.0000
    967 H         209.8974  116.3277  177.0307 H        61        0    0.0000
    968 H         212.0013  115.7344  179.1817 H        61        0    0.0000
    969 H         210.3611  113.9019  177.9808 H        61        0    0.0000
    970 H         209.2414  114.5179  179.1909 H        61        0    0.0000
    971 C         210.9670  113.5165  180.0382 C.3      62        0    0.0000
    972 C         210.1151  113.3396  181.3032 C.3      62        0    0.0000
    973 H         211.1172  112.5271  179.5877 H        62        0    0.0000
    974 H         211.9632  113.9055  180.2794 H        62        0    0.0000
    975 H         209.1307  113.8087  181.1900 H        62        0    0.0000
    976 H         209.9365  112.2661  181.4460 H        62        0    0.0000
    977 C         209.0942  116.0459  185.0181 C.3      63        0    0.0000
    978 C         209.0301  115.3836  183.6426 C.3      63        0    0.0000
    979 C         209.7982  114.0554  183.7565 C.3      63        0    0.0000
    980 C         210.8021  113.8622  182.6123 C.3      63        0    0.0000
    981 C         210.4394  114.0929  185.1523 C.3      63        0    0.0000
    982 C         209.4839  114.9400  186.0023 C.3      63        0    0.0000
    983 C         208.2515  114.1747  186.5179 C.3      63        0    0.0000
    984 H         209.8795  116.8125  185.0066 H        63        0    0.0000
    985 H         208.1566  116.5476  185.2773 H        63        0    0.0000
    986 H         209.4429  116.0508  182.8779 H        63        0    0.0000
    987 H         207.9881  115.1833  183.3667 H        63        0    0.0000
    988 H         209.0637  113.2381  183.7301 H        63        0    0.0000
    989 H         211.5956  113.1690  182.9147 H        63        0    0.0000
    990 H         211.2867  114.8206  182.3902 H        63        0    0.0000
    991 H         210.5996  113.0890  185.5574 H        63        0    0.0000
    992 H         211.4175  114.5896  185.1089 H        63        0    0.0000
    993 H         210.0212  115.3760  186.8542 H        63        0    0.0000
    994 H         207.6398  113.8021  185.6893 H        63        0    0.0000
    995 H         207.6163  114.8592  187.0930 H        63        0    0.0000
    996 C         212.1084  113.1540  188.9322 C.3      64        0    0.0000
    997 C         210.8810  113.8373  188.3237 C.3      64        0    0.0000
    998 C         210.1595  112.7672  187.4940 C.3      64        0    0.0000
    999 C         208.6454  112.9908  187.4459 C.3      64        0    0.0000
   1000 C         210.5906  111.4581  188.1634 C.3      64        0    0.0000
   1001 C         212.0774  111.6995  188.4448 C.3      64        0    0.0000
   1002 C         212.7005  110.7333  189.4561 C.3      64        0    0.0000
   1003 H         213.0355  113.6508  188.6269 H        64        0    0.0000
   1004 H         212.0537  113.2119  190.0259 H        64        0    0.0000
   1005 H         211.1664  114.6914  187.7002 H        64        0    0.0000
   1006 H         210.2410  114.2211  189.1272 H        64        0    0.0000
   1007 H         210.5692  112.7909  186.4736 H        64        0    0.0000
   1008 H         208.2787  113.2035  188.4572 H        64        0    0.0000
   1009 H         208.1369  112.0794  187.1104 H        64        0    0.0000
   1010 H         210.4330  110.5936  187.5106 H        64        0    0.0000
   1011 H         210.0362  111.2923  189.0957 H        64        0    0.0000
   1012 H         212.6276  111.6449  187.4941 H        64        0    0.0000
   1013 H         212.8911  111.2473  190.4055 H        64        0    0.0000
   1014 H         213.6727  110.3930  189.0801 H        64        0    0.0000
   1015 C         211.8069  109.4887  189.7124 C.3      65        0    0.0000
   1016 C         212.2998  108.5918  190.8569 C.3      65        0    0.0000
   1017 H         211.8156  108.8968  188.7881 H        65        0    0.0000
   1018 H         210.7695  109.8053  189.8721 H        65        0    0.0000
   1019 H         213.2663  108.1635  190.5618 H        65        0    0.0000
   1020 H         212.4799  109.1724  191.7694 H        65        0    0.0000
   1021 C         211.4987  106.4055  194.7525 C.3      66        0    0.0000
   1022 C         212.0845  107.2880  193.6475 C.3      66        0    0.0000
   1023 C         211.8889  106.5252  192.3250 C.3      66        0    0.0000
   1024 C         211.3492  107.3866  191.1765 C.3      66        0    0.0000
   1025 C         210.9443  105.3737  192.6843 C.3      66        0    0.0000
   1026 C         211.3024  105.0183  194.1313 C.3      66        0    0.0000
   1027 C         212.5575  104.1300  194.2248 C.3      66        0    0.0000
   1028 H         212.1271  106.4034  195.6482 H        66        0    0.0000
   1029 H         210.5214  106.8096  195.0462 H        66        0    0.0000
   1030 H         211.5940  108.2676  193.6505 H        66        0    0.0000
   1031 H         213.1528  107.4603  193.8230 H        66        0    0.0000
   1032 H         212.8559  106.0938  192.0293 H        66        0    0.0000
   1033 H         211.2531  106.7704  190.2746 H        66        0    0.0000
   1034 H         210.3461  107.7584  191.4155 H        66        0    0.0000
   1035 H         211.0516  104.5264  191.9993 H        66        0    0.0000
   1036 H         209.8997  105.7077  192.6374 H        66        0    0.0000
   1037 H         210.4556  104.5050  194.6045 H        66        0    0.0000
   1038 H         213.3596  104.5094  193.5820 H        66        0    0.0000
   1039 H         212.3161  103.1207  193.8709 H        66        0    0.0000
   1040 C         212.4789  107.1715  197.4682 C.3      67        0    0.0000
   1041 C         212.1500  106.3325  196.2343 C.3      67        0    0.0000
   1042 C         212.2464  104.8586  196.6647 C.3      67        0    0.0000
   1043 C         213.0787  104.0187  195.6869 C.3      67        0    0.0000
   1044 C         212.8146  104.9042  198.0916 C.3      67        0    0.0000
   1045 C         212.3209  106.2364  198.6700 C.3      67        0    0.0000
   1046 C         210.8685  106.2030  199.1798 C.3      67        0    0.0000
   1047 H         213.5231  107.5033  197.4036 H        67        0    0.0000
   1048 H         211.8575  108.0702  197.5324 H        67        0    0.0000
   1049 H         212.8285  106.5817  195.4111 H        67        0    0.0000
   1050 H         211.1321  106.5489  195.8893 H        67        0    0.0000
   1051 H         211.2259  104.4523  196.7067 H        67        0    0.0000
   1052 H         213.0849  102.9674  195.9975 H        67        0    0.0000
   1053 H         214.1200  104.3618  195.7105 H        67        0    0.0000
   1054 H         212.5056  104.0376  198.6842 H        67        0    0.0000
   1055 H         213.9121  104.9094  198.0645 H        67        0    0.0000
   1056 H         212.9818  106.5640  199.4826 H        67        0    0.0000
   1057 H         210.1708  105.9460  198.3756 H        67        0    0.0000
   1058 H         210.5865  107.2029  199.5315 H        67        0    0.0000
   1059 C         210.6873  105.2091  200.3618 C.3      68        0    0.0000
   1060 C         210.1256  105.8528  201.6376 C.3      68        0    0.0000
   1061 H         209.9767  104.4432  200.0257 H        68        0    0.0000
   1062 H         211.6342  104.6930  200.5591 H        68        0    0.0000
   1063 H         209.7160  106.8492  201.4346 H        68        0    0.0000
   1064 H         209.2893  105.2357  201.9905 H        68        0    0.0000
   1065 C         213.4302  104.0556  201.3761 C.3      69        0    0.0000
   1066 C         212.0064  103.7485  201.8481 C.3      69        0    0.0000
   1067 C         211.7847  104.5636  203.1269 C.3      69        0    0.0000
   1068 C         211.1562  105.9352  202.8165 C.3      69        0    0.0000
   1069 C         213.2003  104.6318  203.7139 C.3      69        0    0.0000
   1070 C         214.1043  104.8601  202.4999 C.3      69        0    0.0000
   1071 C         215.5606  104.4685  202.7755 C.3      69        0    0.0000
   1072 H         213.9572  103.1200  201.1570 H        69        0    0.0000
   1073 H         213.4113  104.6418  200.4502 H        69        0    0.0000
   1074 H         211.9351  102.6790  202.0835 H        69        0    0.0000
   1075 H         211.2644  103.9552  201.0702 H        69        0    0.0000
   1076 H         211.1219  104.0143  203.8078 H        69        0    0.0000
   1077 H         211.9483  106.6385  202.5322 H        69        0    0.0000
   1078 H         210.6667  106.3572  203.7007 H        69        0    0.0000
   1079 H         213.4414  103.6737  204.1929 H        69        0    0.0000
   1080 H         213.3245  105.4150  204.4676 H        69        0    0.0000
   1081 H         214.0652  105.9258  202.2341 H        69        0    0.0000
   1082 H         216.2375  105.0368  202.1271 H        69        0    0.0000
   1083 H         215.7044  103.4086  202.5344 H        69        0    0.0000
   1084 C         213.5138  107.2382  205.7007 C.3      70        0    0.0000
   1085 C         214.2104  106.6032  204.5052 C.3      70        0    0.0000
   1086 C         214.8496  105.3484  205.1091 C.3      70        0    0.0000
   1087 C         215.9500  104.6994  204.2639 C.3      70        0    0.0000
   1088 C         215.2601  105.7503  206.5392 C.3      70        0    0.0000
   1089 C         214.5507  107.0896  206.8189 C.3      70        0    0.0000
   1090 C         214.0129  107.2675  208.2421 C.3      70        0    0.0000
   1091 H         213.2564  108.2855  205.5150 H        70        0    0.0000
   1092 H         212.5887  106.6945  205.9216 H        70        0    0.0000
   1093 H         213.5064  106.3608  203.7032 H        70        0    0.0000
   1094 H         214.9593  107.2945  204.1032 H        70        0    0.0000
   1095 H         214.0495  104.5994  205.2087 H        70        0    0.0000
   1096 H         216.8470  105.3288  204.2997 H        70        0    0.0000
   1097 H         216.2232  103.7358  204.7100 H        70        0    0.0000
   1098 H         216.3421  105.8788  206.6514 H        70        0    0.0000
   1099 H         214.9688  104.9599  207.2394 H        70        0    0.0000
   1100 H         215.2995  107.8816  206.6667 H        70        0    0.0000
   1101 H         213.5509  108.2581  208.3290 H        70        0    0.0000
   1102 H         213.2185  106.5328  208.4194 H        70        0    0.0000
   1103 C         215.0909  107.1182  209.3573 C.3      71        0    0.0000
   1104 C         215.1388  108.2967  210.3403 C.3      71        0    0.0000
   1105 H         216.0632  107.0566  208.8519 H        71        0    0.0000
   1106 H         214.9498  106.1662  209.8824 H        71        0    0.0000
   1107 H         214.7606  109.1875  209.8226 H        71        0    0.0000
   1108 H         214.4770  108.1280  211.1979 H        71        0    0.0000
   1109 C         216.5812  108.6457  210.8467 C.3      72        0    0.0000
   1110 C         217.0497  110.0586  210.4702 C.3      72        0    0.0000
   1111 H         217.2641  107.9247  210.3793 H        72        0    0.0000
   1112 H         216.6431  108.4800  211.9286 H        72        0    0.0000
   1113 H         216.1609  110.6904  210.3467 H        72        0    0.0000
   1114 H         217.6451  110.5086  211.2732 H        72        0    0.0000
   1115 C         219.8052  106.9413  209.6039 C.3      73        0    0.0000
   1116 C         218.9958  108.1118  210.1682 C.3      73        0    0.0000
   1117 C         219.0936  109.2412  209.1342 C.3      73        0    0.0000
   1118 C         217.8450  110.1275  209.1206 C.3      73        0    0.0000
   1119 C         219.3591  108.4920  207.8242 C.3      73        0    0.0000
   1120 C         220.3585  107.4122  208.2524 C.3      73        0    0.0000
   1121 C         220.5193  106.2606  207.2562 C.3      73        0    0.0000
   1122 H         220.6162  106.6522  210.2810 H        73        0    0.0000
   1123 H         219.1521  106.0682  209.4878 H        73        0    0.0000
   1124 H         219.3835  108.4347  211.1404 H        73        0    0.0000
   1125 H         217.9566  107.7968  210.3213 H        73        0    0.0000
   1126 H         219.9769  109.8506  209.3750 H        73        0    0.0000
   1127 H         217.1820  109.8064  208.3083 H        73        0    0.0000
   1128 H         218.1197  111.1681  208.9116 H        73        0    0.0000
   1129 H         219.7731  109.1499  207.0535 H        73        0    0.0000
   1130 H         218.4371  108.0419  207.4352 H        73        0    0.0000
   1131 H         221.3344  107.8876  208.4286 H        73        0    0.0000
   1132 H         220.1745  105.3206  207.7027 H        73        0    0.0000
   1133 H         221.5830  106.1288  207.0240 H        73        0    0.0000
   1134 C         218.1315  109.7147  204.6727 C.3      74        0    0.0000
   1135 C         218.4140  108.2267  204.5196 C.3      74        0    0.0000
   1136 C         218.9980  107.8476  205.8845 C.3      74        0    0.0000
   1137 C         219.7520  106.5151  205.9298 C.3      74        0    0.0000
   1138 C         219.8017  109.0816  206.3389 C.3      74        0    0.0000
   1139 C         219.3806  110.2269  205.3973 C.3      74        0    0.0000
   1140 C         219.2417  111.6040  206.0535 C.3      74        0    0.0000
   1141 H         217.9874  110.2051  203.7050 H        74        0    0.0000
   1142 H         217.2222  109.8595  205.2663 H        74        0    0.0000
   1143 H         217.5067  107.6600  204.2887 H        74        0    0.0000
   1144 H         219.1306  108.0679  203.7062 H        74        0    0.0000
   1145 H         218.1494  107.7501  206.5784 H        74        0    0.0000
   1146 H         219.0409  105.6957  205.7715 H        74        0    0.0000
   1147 H         220.4652  106.4784  205.0978 H        74        0    0.0000
   1148 H         220.8848  108.9325  206.2723 H        74        0    0.0000
   1149 H         219.5833  109.2935  207.3912 H        74        0    0.0000
   1150 H         220.1731  110.3204  204.6396 H        74        0    0.0000
   1151 H         219.5251  112.3762  205.3285 H        74        0    0.0000
   1152 H         218.1882  111.7775  206.3030 H        74        0    0.0000
   1153 C         220.0982  111.7887  207.3421 C.3      75        0    0.0000
   1154 C         220.9843  113.0425  207.3279 C.3      75        0    0.0000
   1155 H         219.3949  111.8783  208.1799 H        75        0    0.0000
   1156 H         220.6900  110.8841  207.5251 H        75        0    0.0000
   1157 H         220.5005  113.8667  206.7905 H        75        0    0.0000
   1158 H         221.1159  113.3782  208.3645 H        75        0    0.0000
   1159 H         221.9821  112.8751  206.9222 H        75        0    0.0000
   1160 H          80.8402  212.3761  186.6147 H         0        0    0.0000
@<TRIPOS>BOND
     1     1     2      1
     2     1     6      1
     3     1     8      1
     4     1     9      1
     5     2     3      1
     6     2    10      1
     7     2    11      1
     8     3     4      1
     9     3     5      1
    10     3    12      1
    11     4    13      1
    12     4    14      1
    13     4  1160      H
    14     5     6      1
    15     5    15      1
    16     5    16      1
    17     6     7      1
    18     6    17      1
    19     7    18      1
    20     7    19      1
    21     7    23      1
    22    20    21      1
    23    20    25      1
    24    20    27      1
    25    20    28      1
    26    21    22      1
    27    21    29      1
    28    21    30      1
    29    22    23      1
    30    22    24      1
    31    22    31      1
    32    23    32      1
    33    23    33      1
    34    24    25      1
    35    24    34      1
    36    24    35      1
    37    25    26      1
    38    25    36      1
    39    26    37      1
    40    26    38      1
    41    26    39      1
    42    39    40      1
    43    39    41      1
    44    39    42      1
    45    40    43      1
    46    40    44      1
    47    40    48      1
    48    45    46      1
    49    45    50      1
    50    45    52      1
    51    45    53      1
    52    46    47      1
    53    46    54      1
    54    46    55      1
    55    47    48      1
    56    47    49      1
    57    47    56      1
    58    48    57      1
    59    48    58      1
    60    49    50      1
    61    49    59      1
    62    49    60      1
    63    50    51      1
    64    50    61      1
    65    51    62      1
    66    51    63      1
    67    51    64      1
    68    64    65      1
    69    64    66      1
    70    64    67      1
    71    65    68      1
    72    65    69      1
    73    65    73      1
    74    70    71      1
    75    70    75      1
    76    70    77      1
    77    70    78      1
    78    71    72      1
    79    71    79      1
    80    71    80      1
    81    72    73      1
    82    72    74      1
    83    72    81      1
    84    73    82      1
    85    73    83      1
    86    74    75      1
    87    74    84      1
    88    74    85      1
    89    75    76      1
    90    75    86      1
    91    76    87      1
    92    76    88      1
    93    76    92      1
    94    89    90      1
    95    89    94      1
    96    89    96      1
    97    89    97      1
    98    90    91      1
    99    90    98      1
   100    90    99      1
   101    91    92      1
   102    91    93      1
   103    91   100      1
   104    92   101      1
   105    92   102      1
   106    93    94      1
   107    93   103      1
   108    93   104      1
   109    94    95      1
   110    94   105      1
   111    95   106      1
   112    95   107      1
   113    95   108      1
   114   108   109      1
   115   108   110      1
   116   108   111      1
   117   109   112      1
   118   109   113      1
   119   109   114      1
   120   114   115      1
   121   114   116      1
   122   114   117      1
   123   115   118      1
   124   115   119      1
   125   115   120      1
   126   120   121      1
   127   120   122      1
   128   120   123      1
   129   121   124      1
   130   121   125      1
   131   121   126      1
   132   126   127      1
   133   126   128      1
   134   126   129      1
   135   127   130      1
   136   127   131      1
   137   127   135      1
   138   132   133      1
   139   132   137      1
   140   132   139      1
   141   132   140      1
   142   133   134      1
   143   133   141      1
   144   133   142      1
   145   134   135      1
   146   134   136      1
   147   134   143      1
   148   135   144      1
   149   135   145      1
   150   136   137      1
   151   136   146      1
   152   136   147      1
   153   137   138      1
   154   137   148      1
   155   138   149      1
   156   138   150      1
   157   138   154      1
   158   151   152      1
   159   151   156      1
   160   151   158      1
   161   151   159      1
   162   152   153      1
   163   152   160      1
   164   152   161      1
   165   153   154      1
   166   153   155      1
   167   153   162      1
   168   154   163      1
   169   154   164      1
   170   155   156      1
   171   155   165      1
   172   155   166      1
   173   156   157      1
   174   156   167      1
   175   157   168      1
   176   157   169      1
   177   157   170      1
   178   170   171      1
   179   170   172      1
   180   170   173      1
   181   171   174      1
   182   171   175      1
   183   171   179      1
   184   176   177      1
   185   176   181      1
   186   176   183      1
   187   176   184      1
   188   177   178      1
   189   177   185      1
   190   177   186      1
   191   178   179      1
   192   178   180      1
   193   178   187      1
   194   179   188      1
   195   179   189      1
   196   180   181      1
   197   180   190      1
   198   180   191      1
   199   181   182      1
   200   181   192      1
   201   182   193      1
   202   182   194      1
   203   182   195      1
   204   195   196      1
   205   195   197      1
   206   195   198      1
   207   196   199      1
   208   196   200      1
   209   196   204      1
   210   201   202      1
   211   201   206      1
   212   201   208      1
   213   201   209      1
   214   202   203      1
   215   202   210      1
   216   202   211      1
   217   203   204      1
   218   203   205      1
   219   203   212      1
   220   204   213      1
   221   204   214      1
   222   205   206      1
   223   205   215      1
   224   205   216      1
   225   206   207      1
   226   206   217      1
   227   207   218      1
   228   207   219      1
   229   207   223      1
   230   220   221      1
   231   220   225      1
   232   220   227      1
   233   220   228      1
   234   221   222      1
   235   221   229      1
   236   221   230      1
   237   222   223      1
   238   222   224      1
   239   222   231      1
   240   223   232      1
   241   223   233      1
   242   224   225      1
   243   224   234      1
   244   224   235      1
   245   225   226      1
   246   225   236      1
   247   226   237      1
   248   226   238      1
   249   226   242      1
   250   239   240      1
   251   239   244      1
   252   239   246      1
   253   239   247      1
   254   240   241      1
   255   240   248      1
   256   240   249      1
   257   241   242      1
   258   241   243      1
   259   241   250      1
   260   242   251      1
   261   242   252      1
   262   243   244      1
   263   243   253      1
   264   243   254      1
   265   244   245      1
   266   244   255      1
   267   245   256      1
   268   245   257      1
   269   245   261      1
   270   258   259      1
   271   258   263      1
   272   258   265      1
   273   258   266      1
   274   259   260      1
   275   259   267      1
   276   259   268      1
   277   260   261      1
   278   260   262      1
   279   260   269      1
   280   261   270      1
   281   261   271      1
   282   262   263      1
   283   262   272      1
   284   262   273      1
   285   263   264      1
   286   263   274      1
   287   264   275      1
   288   264   276      1
   289   264   277      1
   290   277   278      1
   291   277   279      1
   292   277   280      1
   293   278   281      1
   294   278   282      1
   295   278   286      1
   296   283   284      1
   297   283   288      1
   298   283   290      1
   299   283   291      1
   300   284   285      1
   301   284   292      1
   302   284   293      1
   303   285   286      1
   304   285   287      1
   305   285   294      1
   306   286   295      1
   307   286   296      1
   308   287   288      1
   309   287   297      1
   310   287   298      1
   311   288   289      1
   312   288   299      1
   313   289   300      1
   314   289   301      1
   315   289   305      1
   316   302   303      1
   317   302   307      1
   318   302   309      1
   319   302   310      1
   320   303   304      1
   321   303   311      1
   322   303   312      1
   323   304   305      1
   324   304   306      1
   325   304   313      1
   326   305   314      1
   327   305   315      1
   328   306   307      1
   329   306   316      1
   330   306   317      1
   331   307   308      1
   332   307   318      1
   333   308   319      1
   334   308   320      1
   335   308   324      1
   336   321   322      1
   337   321   326      1
   338   321   328      1
   339   321   329      1
   340   322   323      1
   341   322   330      1
   342   322   331      1
   343   323   324      1
   344   323   325      1
   345   323   332      1
   346   324   333      1
   347   324   334      1
   348   325   326      1
   349   325   335      1
   350   325   336      1
   351   326   327      1
   352   326   337      1
   353   327   338      1
   354   327   339      1
   355   327   343      1
   356   340   341      1
   357   340   345      1
   358   340   347      1
   359   340   348      1
   360   341   342      1
   361   341   349      1
   362   341   350      1
   363   342   343      1
   364   342   344      1
   365   342   351      1
   366   343   352      1
   367   343   353      1
   368   344   345      1
   369   344   354      1
   370   344   355      1
   371   345   346      1
   372   345   356      1
   373   346   357      1
   374   346   358      1
   375   346   362      1
   376   359   360      1
   377   359   364      1
   378   359   366      1
   379   359   367      1
   380   360   361      1
   381   360   368      1
   382   360   369      1
   383   361   362      1
   384   361   363      1
   385   361   370      1
   386   362   371      1
   387   362   372      1
   388   363   364      1
   389   363   373      1
   390   363   374      1
   391   364   365      1
   392   364   375      1
   393   365   376      1
   394   365   377      1
   395   365   381      1
   396   378   379      1
   397   378   383      1
   398   378   385      1
   399   378   386      1
   400   379   380      1
   401   379   387      1
   402   379   388      1
   403   380   381      1
   404   380   382      1
   405   380   389      1
   406   381   390      1
   407   381   391      1
   408   382   383      1
   409   382   392      1
   410   382   393      1
   411   383   384      1
   412   383   394      1
   413   384   395      1
   414   384   396      1
   415   384   397      1
   416   397   398      1
   417   397   399      1
   418   397   400      1
   419   398   401      1
   420   398   402      1
   421   398   406      1
   422   403   404      1
   423   403   408      1
   424   403   410      1
   425   403   411      1
   426   404   405      1
   427   404   412      1
   428   404   413      1
   429   405   406      1
   430   405   407      1
   431   405   414      1
   432   406   415      1
   433   406   416      1
   434   407   408      1
   435   407   417      1
   436   407   418      1
   437   408   409      1
   438   408   419      1
   439   409   420      1
   440   409   421      1
   441   409   425      1
   442   422   423      1
   443   422   427      1
   444   422   429      1
   445   422   430      1
   446   423   424      1
   447   423   431      1
   448   423   432      1
   449   424   425      1
   450   424   426      1
   451   424   433      1
   452   425   434      1
   453   425   435      1
   454   426   427      1
   455   426   436      1
   456   426   437      1
   457   427   428      1
   458   427   438      1
   459   428   439      1
   460   428   440      1
   461   428   444      1
   462   441   442      1
   463   441   446      1
   464   441   448      1
   465   441   449      1
   466   442   443      1
   467   442   450      1
   468   442   451      1
   469   443   444      1
   470   443   445      1
   471   443   452      1
   472   444   453      1
   473   444   454      1
   474   445   446      1
   475   445   455      1
   476   445   456      1
   477   446   447      1
   478   446   457      1
   479   447   458      1
   480   447   459      1
   481   447   463      1
   482   460   461      1
   483   460   465      1
   484   460   467      1
   485   460   468      1
   486   461   462      1
   487   461   469      1
   488   461   470      1
   489   462   463      1
   490   462   464      1
   491   462   471      1
   492   463   472      1
   493   463   473      1
   494   464   465      1
   495   464   474      1
   496   464   475      1
   497   465   466      1
   498   465   476      1
   499   466   477      1
   500   466   478      1
   501   466   479      1
   502   479   480      1
   503   479   481      1
   504   479   482      1
   505   480   483      1
   506   480   484      1
   507   480   488      1
   508   485   486      1
   509   485   490      1
   510   485   492      1
   511   485   493      1
   512   486   487      1
   513   486   494      1
   514   486   495      1
   515   487   488      1
   516   487   489      1
   517   487   496      1
   518   488   497      1
   519   488   498      1
   520   489   490      1
   521   489   499      1
   522   489   500      1
   523   490   491      1
   524   490   501      1
   525   491   502      1
   526   491   503      1
   527   491   507      1
   528   504   505      1
   529   504   509      1
   530   504   511      1
   531   504   512      1
   532   505   506      1
   533   505   513      1
   534   505   514      1
   535   506   507      1
   536   506   508      1
   537   506   515      1
   538   507   516      1
   539   507   517      1
   540   508   509      1
   541   508   518      1
   542   508   519      1
   543   509   510      1
   544   509   520      1
   545   510   521      1
   546   510   522      1
   547   510   526      1
   548   523   524      1
   549   523   528      1
   550   523   530      1
   551   523   531      1
   552   524   525      1
   553   524   532      1
   554   524   533      1
   555   525   526      1
   556   525   527      1
   557   525   534      1
   558   526   535      1
   559   526   536      1
   560   527   528      1
   561   527   537      1
   562   527   538      1
   563   528   529      1
   564   528   539      1
   565   529   540      1
   566   529   541      1
   567   529   545      1
   568   542   543      1
   569   542   547      1
   570   542   549      1
   571   542   550      1
   572   543   544      1
   573   543   551      1
   574   543   552      1
   575   544   545      1
   576   544   546      1
   577   544   553      1
   578   545   554      1
   579   545   555      1
   580   546   547      1
   581   546   556      1
   582   546   557      1
   583   547   548      1
   584   547   558      1
   585   548   559      1
   586   548   560      1
   587   548   564      1
   588   561   562      1
   589   561   566      1
   590   561   568      1
   591   561   569      1
   592   562   563      1
   593   562   570      1
   594   562   571      1
   595   563   564      1
   596   563   565      1
   597   563   572      1
   598   564   573      1
   599   564   574      1
   600   565   566      1
   601   565   575      1
   602   565   576      1
   603   566   567      1
   604   566   577      1
   605   567   578      1
   606   567   579      1
   607   567   583      1
   608   580   581      1
   609   580   585      1
   610   580   587      1
   611   580   588      1
   612   581   582      1
   613   581   589      1
   614   581   590      1
   615   582   583      1
   616   582   584      1
   617   582   591      1
   618   583   592      1
   619   583   593      1
   620   584   585      1
   621   584   594      1
   622   584   595      1
   623   585   586      1
   624   585   596      1
   625   586   597      1
   626   586   598      1
   627   586   602      1
   628   599   600      1
   629   599   604      1
   630   599   606      1
   631   599   607      1
   632   600   601      1
   633   600   608      1
   634   600   609      1
   635   601   602      1
   636   601   603      1
   637   601   610      1
   638   602   611      1
   639   602   612      1
   640   603   604      1
   641   603   613      1
   642   603   614      1
   643   604   605      1
   644   604   615      1
   645   605   616      1
   646   605   617      1
   647   605   621      1
   648   618   619      1
   649   618   623      1
   650   618   625      1
   651   618   626      1
   652   619   620      1
   653   619   627      1
   654   619   628      1
   655   620   621      1
   656   620   622      1
   657   620   629      1
   658   621   630      1
   659   621   631      1
   660   622   623      1
   661   622   632      1
   662   622   633      1
   663   623   624      1
   664   623   634      1
   665   624   635      1
   666   624   636      1
   667   624   640      1
   668   637   638      1
   669   637   642      1
   670   637   644      1
   671   637   645      1
   672   638   639      1
   673   638   646      1
   674   638   647      1
   675   639   640      1
   676   639   641      1
   677   639   648      1
   678   640   649      1
   679   640   650      1
   680   641   642      1
   681   641   651      1
   682   641   652      1
   683   642   643      1
   684   642   653      1
   685   643   654      1
   686   643   655      1
   687   643   659      1
   688   656   657      1
   689   656   661      1
   690   656   663      1
   691   656   664      1
   692   657   658      1
   693   657   665      1
   694   657   666      1
   695   658   659      1
   696   658   660      1
   697   658   667      1
   698   659   668      1
   699   659   669      1
   700   660   661      1
   701   660   670      1
   702   660   671      1
   703   661   662      1
   704   661   672      1
   705   662   673      1
   706   662   674      1
   707   662   675      1
   708   675   676      1
   709   675   677      1
   710   675   678      1
   711   676   679      1
   712   676   680      1
   713   676   684      1
   714   681   682      1
   715   681   686      1
   716   681   688      1
   717   681   689      1
   718   682   683      1
   719   682   690      1
   720   682   691      1
   721   683   684      1
   722   683   685      1
   723   683   692      1
   724   684   693      1
   725   684   694      1
   726   685   686      1
   727   685   695      1
   728   685   696      1
   729   686   687      1
   730   686   697      1
   731   687   698      1
   732   687   699      1
   733   687   703      1
   734   700   701      1
   735   700   705      1
   736   700   707      1
   737   700   708      1
   738   701   702      1
   739   701   709      1
   740   701   710      1
   741   702   703      1
   742   702   704      1
   743   702   711      1
   744   703   712      1
   745   703   713      1
   746   704   705      1
   747   704   714      1
   748   704   715      1
   749   705   706      1
   750   705   716      1
   751   706   717      1
   752   706   718      1
   753   706   722      1
   754   719   720      1
   755   719   724      1
   756   719   726      1
   757   719   727      1
   758   720   721      1
   759   720   728      1
   760   720   729      1
   761   721   722      1
   762   721   723      1
   763   721   730      1
   764   722   731      1
   765   722   732      1
   766   723   724      1
   767   723   733      1
   768   723   734      1
   769   724   725      1
   770   724   735      1
   771   725   736      1
   772   725   737      1
   773   725   741      1
   774   738   739      1
   775   738   743      1
   776   738   745      1
   777   738   746      1
   778   739   740      1
   779   739   747      1
   780   739   748      1
   781   740   741      1
   782   740   742      1
   783   740   749      1
   784   741   750      1
   785   741   751      1
   786   742   743      1
   787   742   752      1
   788   742   753      1
   789   743   744      1
   790   743   754      1
   791   744   755      1
   792   744   756      1
   793   744   760      1
   794   757   758      1
   795   757   762      1
   796   757   764      1
   797   757   765      1
   798   758   759      1
   799   758   766      1
   800   758   767      1
   801   759   760      1
   802   759   761      1
   803   759   768      1
   804   760   769      1
   805   760   770      1
   806   761   762      1
   807   761   771      1
   808   761   772      1
   809   762   763      1
   810   762   773      1
   811   763   774      1
   812   763   775      1
   813   763   779      1
   814   776   777      1
   815   776   781      1
   816   776   783      1
   817   776   784      1
   818   777   778      1
   819   777   785      1
   820   777   786      1
   821   778   779      1
   822   778   780      1
   823   778   787      1
   824   779   788      1
   825   779   789      1
   826   780   781      1
   827   780   790      1
   828   780   791      1
   829   781   782      1
   830   781   792      1
   831   782   793      1
   832   782   794      1
   833   782   795      1
   834   795   796      1
   835   795   797      1
   836   795   798      1
   837   796   799      1
   838   796   800      1
   839   796   804      1
   840   801   802      1
   841   801   806      1
   842   801   808      1
   843   801   809      1
   844   802   803      1
   845   802   810      1
   846   802   811      1
   847   803   804      1
   848   803   805      1
   849   803   812      1
   850   804   813      1
   851   804   814      1
   852   805   806      1
   853   805   815      1
   854   805   816      1
   855   806   807      1
   856   806   817      1
   857   807   818      1
   858   807   819      1
   859   807   823      1
   860   820   821      1
   861   820   825      1
   862   820   827      1
   863   820   828      1
   864   821   822      1
   865   821   829      1
   866   821   830      1
   867   822   823      1
   868   822   824      1
   869   822   831      1
   870   823   832      1
   871   823   833      1
   872   824   825      1
   873   824   834      1
   874   824   835      1
   875   825   826      1
   876   825   836      1
   877   826   837      1
   878   826   838      1
   879   826   839      1
   880   839   840      1
   881   839   841      1
   882   839   842      1
   883   840   843      1
   884   840   844      1
   885   840   848      1
   886   845   846      1
   887   845   850      1
   888   845   852      1
   889   845   853      1
   890   846   847      1
   891   846   854      1
   892   846   855      1
   893   847   848      1
   894   847   849      1
   895   847   856      1
   896   848   857      1
   897   848   858      1
   898   849   850      1
   899   849   859      1
   900   849   860      1
   901   850   851      1
   902   850   861      1
   903   851   862      1
   904   851   863      1
   905   851   867      1
   906   864   865      1
   907   864   869      1
   908   864   871      1
   909   864   872      1
   910   865   866      1
   911   865   873      1
   912   865   874      1
   913   866   867      1
   914   866   868      1
   915   866   875      1
   916   867   876      1
   917   867   877      1
   918   868   869      1
   919   868   878      1
   920   868   879      1
   921   869   870      1
   922   869   880      1
   923   870   881      1
   924   870   882      1
   925   870   883      1
   926   883   884      1
   927   883   885      1
   928   883   886      1
   929   884   887      1
   930   884   888      1
   931   884   892      1
   932   889   890      1
   933   889   894      1
   934   889   896      1
   935   889   897      1
   936   890   891      1
   937   890   898      1
   938   890   899      1
   939   891   892      1
   940   891   893      1
   941   891   900      1
   942   892   901      1
   943   892   902      1
   944   893   894      1
   945   893   903      1
   946   893   904      1
   947   894   895      1
   948   894   905      1
   949   895   906      1
   950   895   907      1
   951   895   908      1
   952   908   909      1
   953   908   910      1
   954   908   911      1
   955   909   912      1
   956   909   913      1
   957   909   917      1
   958   914   915      1
   959   914   919      1
   960   914   921      1
   961   914   922      1
   962   915   916      1
   963   915   923      1
   964   915   924      1
   965   916   917      1
   966   916   918      1
   967   916   925      1
   968   917   926      1
   969   917   927      1
   970   918   919      1
   971   918   928      1
   972   918   929      1
   973   919   920      1
   974   919   930      1
   975   920   931      1
   976   920   932      1
   977   920   936      1
   978   933   934      1
   979   933   938      1
   980   933   940      1
   981   933   941      1
   982   934   935      1
   983   934   942      1
   984   934   943      1
   985   935   936      1
   986   935   937      1
   987   935   944      1
   988   936   945      1
   989   936   946      1
   990   937   938      1
   991   937   947      1
   992   937   948      1
   993   938   939      1
   994   938   949      1
   995   939   950      1
   996   939   951      1
   997   939   955      1
   998   952   953      1
   999   952   957      1
  1000   952   959      1
  1001   952   960      1
  1002   953   954      1
  1003   953   961      1
  1004   953   962      1
  1005   954   955      1
  1006   954   956      1
  1007   954   963      1
  1008   955   964      1
  1009   955   965      1
  1010   956   957      1
  1011   956   966      1
  1012   956   967      1
  1013   957   958      1
  1014   957   968      1
  1015   958   969      1
  1016   958   970      1
  1017   958   971      1
  1018   971   972      1
  1019   971   973      1
  1020   971   974      1
  1021   972   975      1
  1022   972   976      1
  1023   972   980      1
  1024   977   978      1
  1025   977   982      1
  1026   977   984      1
  1027   977   985      1
  1028   978   979      1
  1029   978   986      1
  1030   978   987      1
  1031   979   980      1
  1032   979   981      1
  1033   979   988      1
  1034   980   989      1
  1035   980   990      1
  1036   981   982      1
  1037   981   991      1
  1038   981   992      1
  1039   982   983      1
  1040   982   993      1
  1041   983   994      1
  1042   983   995      1
  1043   983   999      1
  1044   996   997      1
  1045   996  1001      1
  1046   996  1003      1
  1047   996  1004      1
  1048   997   998      1
  1049   997  1005      1
  1050   997  1006      1
  1051   998   999      1
  1052   998  1000      1
  1053   998  1007      1
  1054   999  1008      1
  1055   999  1009      1
  1056  1000  1001      1
  1057  1000  1010      1
  1058  1000  1011      1
  1059  1001  1002      1
  1060  1001  1012      1
  1061  1002  1013      1
  1062  1002  1014      1
  1063  1002  1015      1
  1064  1015  1016      1
  1065  1015  1017      1
  1066  1015  1018      1
  1067  1016  1019      1
  1068  1016  1020      1
  1069  1016  1024      1
  1070  1021  1022      1
  1071  1021  1026      1
  1072  1021  1028      1
  1073  1021  1029      1
  1074  1022  1023      1
  1075  1022  1030      1
  1076  1022  1031      1
  1077  1023  1024      1
  1078  1023  1025      1
  1079  1023  1032      1
  1080  1024  1033      1
  1081  1024  1034      1
  1082  1025  1026      1
  1083  1025  1035      1
  1084  1025  1036      1
  1085  1026  1027      1
  1086  1026  1037      1
  1087  1027  1038      1
  1088  1027  1039      1
  1089  1027  1043      1
  1090  1040  1041      1
  1091  1040  1045      1
  1092  1040  1047      1
  1093  1040  1048      1
  1094  1041  1042      1
  1095  1041  1049      1
  1096  1041  1050      1
  1097  1042  1043      1
  1098  1042  1044      1
  1099  1042  1051      1
  1100  1043  1052      1
  1101  1043  1053      1
  1102  1044  1045      1
  1103  1044  1054      1
  1104  1044  1055      1
  1105  1045  1046      1
  1106  1045  1056      1
  1107  1046  1057      1
  1108  1046  1058      1
  1109  1046  1059      1
  1110  1059  1060      1
  1111  1059  1061      1
  1112  1059  1062      1
  1113  1060  1063      1
  1114  1060  1064      1
  1115  1060  1068      1
  1116  1065  1066      1
  1117  1065  1070      1
  1118  1065  1072      1
  1119  1065  1073      1
  1120  1066  1067      1
  1121  1066  1074      1
  1122  1066  1075      1
  1123  1067  1068      1
  1124  1067  1069      1
  1125  1067  1076      1
  1126  1068  1077      1
  1127  1068  1078      1
  1128  1069  1070      1
  1129  1069  1079      1
  1130  1069  1080      1
  1131  1070  1071      1
  1132  1070  1081      1
  1133  1071  1082      1
  1134  1071  1083      1
  1135  1071  1087      1
  1136  1084  1085      1
  1137  1084  1089      1
  1138  1084  1091      1
  1139  1084  1092      1
  1140  1085  1086      1
  1141  1085  1093      1
  1142  1085  1094      1
  1143  1086  1087      1
  1144  1086  1088      1
  1145  1086  1095      1
  1146  1087  1096      1
  1147  1087  1097      1
  1148  1088  1089      1
  1149  1088  1098      1
  1150  1088  1099      1
  1151  1089  1090      1
  1152  1089  1100      1
  1153  1090  1101      1
  1154  1090  1102      1
  1155  1090  1103      1
  1156  1103  1104      1
  1157  1103  1105      1
  1158  1103  1106      1
  1159  1104  1107      1
  1160  1104  1108      1
  1161  1104  1109      1
  1162  1109  1110      1
  1163  1109  1111      1
  1164  1109  1112      1
  1165  1110  1113      1
  1166  1110  1114      1
  1167  1110  1118      1
  1168  1115  1116      1
  1169  1115  1120      1
  1170  1115  1122      1
  1171  1115  1123      1
  1172  1116  1117      1
  1173  1116  1124      1
  1174  1116  1125      1
  1175  1117  1118      1
  1176  1117  1119      1
  1177  1117  1126      1
  1178  1118  1127      1
  1179  1118  1128      1
  1180  1119  1120      1
  1181  1119  1129      1
  1182  1119  1130      1
  1183  1120  1121      1
  1184  1120  1131      1
  1185  1121  1132      1
  1186  1121  1133      1
  1187  1121  1137      1
  1188  1134  1135      1
  1189  1134  1139      1
  1190  1134  1141      1
  1191  1134  1142      1
  1192  1135  1136      1
  1193  1135  1143      1
  1194  1135  1144      1
  1195  1136  1137      1
  1196  1136  1138      1
  1197  1136  1145      1
  1198  1137  1146      1
  1199  1137  1147      1
  1200  1138  1139      1
  1201  1138  1148      1
  1202  1138  1149      1
  1203  1139  1140      1
  1204  1139  1150      1
  1205  1140  1151      1
  1206  1140  1152      1
  1207  1140  1153      1
  1208  1153  1154      1
  1209  1153  1155      1
  1210  1153  1156      1
  1211  1154  1157      1
  1212  1154  1158      1
  1213  1154  1159      H
