###
### Created by PolyChef-cpp17 on Wed Feb 26 21:14:13 2025
###

@<TRIPOS>MOLECULE
NO_INFO
1217 1273 1 0 0
SMALL
USER_CHARGES


@<TRIPOS>ATOM
      1 C         174.1065   58.9946  177.7052 C.3       0        0    0.0000
      2 C         175.3473   58.4697  178.4140 C.3       0        0    0.0000
      3 C         176.4626   58.7466  177.4004 C.3       0        0    0.0000
      4 C         177.7691   57.9825  177.6355 C.3       0        0    0.0000
      5 C         175.8136   58.5433  176.0173 C.3       0        0    0.0000
      6 C         174.2941   58.4914  176.2702 C.3       0        0    0.0000
      7 C         173.4249   59.1795  175.2132 C.3       0        0    0.0000
      8 H         173.1855   58.6137  178.1574 H         0        0    0.0000
      9 H         174.0847   60.0886  177.7588 H         0        0    0.0000
     10 H         175.5210   58.9804  179.3662 H         0        0    0.0000
     11 H         175.2321   57.3995  178.6179 H         0        0    0.0000
     12 H         176.7076   59.8165  177.4802 H         0        0    0.0000
     13 H         177.5841   56.9093  177.5086 H         0        0    0.0000
     14 H         178.4958   58.2700  176.8664 H         0        0    0.0000
     15 H         176.1351   57.6175  175.5282 H         0        0    0.0000
     16 H         176.1066   59.3622  175.3516 H         0        0    0.0000
     17 H         174.0092   57.4284  176.2652 H         0        0    0.0000
     18 H         172.3725   59.1061  175.5121 H         0        0    0.0000
     19 H         173.6711   60.2477  175.1868 H         0        0    0.0000
     20 C         170.6929   60.7181  172.8126 C.3       1        0    0.0000
     21 C         171.2390   59.2945  172.9476 C.3       1        0    0.0000
     22 C         172.7625   59.3870  172.7492 C.3       1        0    0.0000
     23 C         173.5795   58.5946  173.7772 C.3       1        0    0.0000
     24 C         173.0636   60.8884  172.7969 C.3       1        0    0.0000
     25 C         171.8205   61.5504  172.1927 C.3       1        0    0.0000
     26 C         171.8246   61.5126  170.6527 C.3       1        0    0.0000
     27 H         169.7598   60.7439  172.2418 H         1        0    0.0000
     28 H         170.4679   61.1065  173.8142 H         1        0    0.0000
     29 H         170.9612   58.8773  173.9218 H         1        0    0.0000
     30 H         170.8026   58.6442  172.1805 H         1        0    0.0000
     31 H         173.0016   59.0229  171.7397 H         1        0    0.0000
     32 H         173.2380   57.5527  173.7873 H         1        0    0.0000
     33 H         174.6385   58.5791  173.4950 H         1        0    0.0000
     34 H         173.9832   61.1396  172.2585 H         1        0    0.0000
     35 H         173.1864   61.2206  173.8359 H         1        0    0.0000
     36 H         171.7566   62.5920  172.5322 H         1        0    0.0000
     37 H         171.5990   60.5070  170.2809 H         1        0    0.0000
     38 H         172.8247   61.7712  170.2850 H         1        0    0.0000
     39 C         170.8095   62.5251  170.0474 C.3       2        0    0.0000
     40 C         171.0270   62.8095  168.5543 C.3       2        0    0.0000
     41 H         169.8118   62.0838  170.1680 H         2        0    0.0000
     42 H         170.8159   63.4507  170.6348 H         2        0    0.0000
     43 H         172.0767   63.0441  168.3418 H         2        0    0.0000
     44 H         170.7906   61.8950  167.9955 H         2        0    0.0000
     45 C         169.1441   65.7663  171.0655 C.3       3        0    0.0000
     46 C         169.5919   64.4335  170.4604 C.3       3        0    0.0000
     47 C         169.0724   64.4112  169.0117 C.3       3        0    0.0000
     48 C         170.1060   63.9414  167.9805 C.3       3        0    0.0000
     49 C         168.6007   65.8457  168.7530 C.3       3        0    0.0000
     50 C         168.0872   66.3339  170.1118 C.3       3        0    0.0000
     51 C         166.6636   65.8309  170.4172 C.3       3        0    0.0000
     52 H         168.7924   65.6486  172.0949 H         3        0    0.0000
     53 H         170.0043   66.4473  171.0955 H         3        0    0.0000
     54 H         170.6817   64.3407  170.5233 H         3        0    0.0000
     55 H         169.1626   63.5960  171.0226 H         3        0    0.0000
     56 H         168.1947   63.7506  168.9702 H         3        0    0.0000
     57 H         169.5863   63.5526  167.0967 H         3        0    0.0000
     58 H         170.7202   64.7840  167.6428 H         3        0    0.0000
     59 H         167.8380   65.8914  167.9688 H         3        0    0.0000
     60 H         169.4429   66.4730  168.4333 H         3        0    0.0000
     61 H         168.1003   67.4310  170.1375 H         3        0    0.0000
     62 H         166.3812   66.0472  171.4534 H         3        0    0.0000
     63 H         166.6293   64.7413  170.2984 H         3        0    0.0000
     64 C         165.6115   66.4560  169.4558 C.3       4        0    0.0000
     65 C         165.3693   65.6380  168.1791 C.3       4        0    0.0000
     66 H         164.6663   66.5081  170.0111 H         4        0    0.0000
     67 H         165.8940   67.4888  169.2202 H         4        0    0.0000
     68 H         165.4231   64.5614  168.3790 H         4        0    0.0000
     69 H         164.3482   65.8422  167.8326 H         4        0    0.0000
     70 C         168.9062   67.4252  165.5374 C.3       5        0    0.0000
     71 C         168.8170   66.3250  166.5984 C.3       5        0    0.0000
     72 C         167.6239   66.6770  167.4936 C.3       5        0    0.0000
     73 C         166.3306   66.0044  166.9958 C.3       5        0    0.0000
     74 C         167.6106   68.2093  167.4233 C.3       5        0    0.0000
     75 C         167.9168   68.5250  165.9571 C.3       5        0    0.0000
     76 C         168.4367   69.9541  165.7646 C.3       5        0    0.0000
     77 H         169.9366   67.7924  165.4709 H         5        0    0.0000
     78 H         168.6378   67.0315  164.5504 H         5        0    0.0000
     79 H         169.7358   66.3372  167.1983 H         5        0    0.0000
     80 H         168.7411   65.3293  166.1495 H         5        0    0.0000
     81 H         167.8218   66.3501  168.5226 H         5        0    0.0000
     82 H         166.5871   65.0809  166.4626 H         5        0    0.0000
     83 H         165.8016   66.6420  166.2794 H         5        0    0.0000
     84 H         168.4011   68.6096  168.0716 H         5        0    0.0000
     85 H         166.6651   68.6543  167.7472 H         5        0    0.0000
     86 H         166.9928   68.3997  165.3752 H         5        0    0.0000
     87 H         168.4556   70.2127  164.6995 H         5        0    0.0000
     88 H         169.4701   70.0172  166.1256 H         5        0    0.0000
     89 C         169.7023   73.8334  165.2615 C.3       6        0    0.0000
     90 C         169.3487   72.8081  166.3420 C.3       6        0    0.0000
     91 C         167.8785   72.4326  166.1146 C.3       6        0    0.0000
     92 C         167.5735   70.9927  166.5369 C.3       6        0    0.0000
     93 C         167.6728   72.7178  164.6232 C.3       6        0    0.0000
     94 C         168.4310   74.0348  164.4263 C.3       6        0    0.0000
     95 C         168.7417   74.3801  162.9673 C.3       6        0    0.0000
     96 H         170.0372   74.7790  165.7013 H         6        0    0.0000
     97 H         170.5275   73.4493  164.6499 H         6        0    0.0000
     98 H         169.4986   73.2177  167.3467 H         6        0    0.0000
     99 H         170.0053   71.9352  166.2457 H         6        0    0.0000
    100 H         167.2538   73.1279  166.6942 H         6        0    0.0000
    101 H         166.5153   70.7764  166.3475 H         6        0    0.0000
    102 H         167.7331   70.8706  167.6146 H         6        0    0.0000
    103 H         166.6128   72.8141  164.3676 H         6        0    0.0000
    104 H         168.1053   71.9195  164.0072 H         6        0    0.0000
    105 H         167.8468   74.8474  164.8821 H         6        0    0.0000
    106 H         167.8215   74.3769  162.3714 H         6        0    0.0000
    107 H         169.3952   73.6080  162.5438 H         6        0    0.0000
    108 C         169.4463   75.7569  162.8231 C.3       7        0    0.0000
    109 C         168.8797   76.6327  161.6964 C.3       7        0    0.0000
    110 H         169.3015   76.2879  163.7726 H         7        0    0.0000
    111 H         170.5265   75.6089  162.7084 H         7        0    0.0000
    112 H         169.4069   76.4573  160.7513 H         7        0    0.0000
    113 H         167.8345   76.3411  161.5314 H         7        0    0.0000
    114 C         168.8757   78.1664  162.0224 C.3       8        0    0.0000
    115 C         167.8961   78.9834  161.1677 C.3       8        0    0.0000
    116 H         169.8901   78.5352  161.8238 H         8        0    0.0000
    117 H         168.6918   78.3161  163.0928 H         8        0    0.0000
    118 H         168.1378   78.8080  160.1116 H         8        0    0.0000
    119 H         166.8631   78.6462  161.3129 H         8        0    0.0000
    120 C         167.9845   80.5313  161.4014 C.3       9        0    0.0000
    121 C         167.7146   81.3686  160.1430 C.3       9        0    0.0000
    122 H         167.2207   80.7831  162.1481 H         9        0    0.0000
    123 H         168.9539   80.7828  161.8475 H         9        0    0.0000
    124 H         168.2315   80.9540  159.2696 H         9        0    0.0000
    125 H         166.6402   81.3185  159.9247 H         9        0    0.0000
    126 C         168.0746   82.8868  160.2985 C.3      10        0    0.0000
    127 C         167.6202   83.7596  159.1199 C.3      10        0    0.0000
    128 H         169.1684   82.9478  160.3655 H        10        0    0.0000
    129 H         167.6809   83.2642  161.2495 H        10        0    0.0000
    130 H         166.8369   84.4383  159.4810 H        10        0    0.0000
    131 H         168.4376   84.3915  158.7531 H        10        0    0.0000
    132 C         167.0533   84.5974  154.5036 C.3      11        0    0.0000
    133 C         167.2427   83.3696  155.3833 C.3      11        0    0.0000
    134 C         166.6228   83.8046  156.7153 C.3      11        0    0.0000
    135 C         167.0029   82.9494  157.9279 C.3      11        0    0.0000
    136 C         166.9382   85.3083  156.8377 C.3      11        0    0.0000
    137 C         167.4216   85.7507  155.4427 C.3      11        0    0.0000
    138 C         166.9570   87.1391  154.9925 C.3      11        0    0.0000
    139 H         167.6946   84.5681  153.6172 H        11        0    0.0000
    140 H         166.0119   84.6553  154.1684 H        11        0    0.0000
    141 H         166.7458   82.4878  154.9671 H        11        0    0.0000
    142 H         168.3106   83.1446  155.4798 H        11        0    0.0000
    143 H         165.5315   83.7189  156.6023 H        11        0    0.0000
    144 H         166.1120   82.4198  158.2858 H        11        0    0.0000
    145 H         167.7207   82.1821  157.6144 H        11        0    0.0000
    146 H         167.7159   85.5212  157.5791 H        11        0    0.0000
    147 H         166.0419   85.8446  157.1676 H        11        0    0.0000
    148 H         168.5206   85.7880  155.4863 H        11        0    0.0000
    149 H         166.2666   87.5458  155.7410 H        11        0    0.0000
    150 H         167.8209   87.8136  154.9614 H        11        0    0.0000
    151 C         163.7357   89.9660  153.6542 C.3      12        0    0.0000
    152 C         164.1567   88.5547  153.2360 C.3      12        0    0.0000
    153 C         165.6909   88.5399  153.2539 C.3      12        0    0.0000
    154 C         166.2556   87.1597  153.6012 C.3      12        0    0.0000
    155 C         166.0381   89.6433  154.2589 C.3      12        0    0.0000
    156 C         165.0331   90.7452  153.9073 C.3      12        0    0.0000
    157 C         164.8648   91.8221  154.9826 C.3      12        0    0.0000
    158 H         163.1319   90.4498  152.8789 H        12        0    0.0000
    159 H         163.1184   89.9098  154.5588 H        12        0    0.0000
    160 H         163.7730   88.3007  152.2421 H        12        0    0.0000
    161 H         163.7401   87.8256  153.9412 H        12        0    0.0000
    162 H         166.0480   88.8460  152.2598 H        12        0    0.0000
    163 H         166.9859   86.8650  152.8381 H        12        0    0.0000
    164 H         165.4585   86.4072  153.5832 H        12        0    0.0000
    165 H         167.0728   89.9839  154.1511 H        12        0    0.0000
    166 H         165.8949   89.2952  155.2896 H        12        0    0.0000
    167 H         165.3420   91.2127  152.9610 H        12        0    0.0000
    168 H         165.7846   91.9188  155.5712 H        12        0    0.0000
    169 H         164.0744   91.5179  155.6791 H        12        0    0.0000
    170 C         164.4882   93.2040  154.3813 C.3      13        0    0.0000
    171 C         163.0955   93.7039  154.7909 C.3      13        0    0.0000
    172 H         165.2304   93.9232  154.7507 H        13        0    0.0000
    173 H         164.5965   93.1742  153.2907 H        13        0    0.0000
    174 H         162.4474   92.8739  155.0959 H        13        0    0.0000
    175 H         163.2109   94.3511  155.6697 H        13        0    0.0000
    176 C         163.2916   97.7183  152.0617 C.3      14        0    0.0000
    177 C         163.4072   96.8651  153.3239 C.3      14        0    0.0000
    178 C         163.3652   95.3962  152.8687 C.3      14        0    0.0000
    179 C         162.3764   94.5589  153.6906 C.3      14        0    0.0000
    180 C         163.0357   95.4607  151.3693 C.3      14        0    0.0000
    181 C         163.6314   96.7912  150.8918 C.3      14        0    0.0000
    182 C         165.1466   96.7436  150.6231 C.3      14        0    0.0000
    183 H         162.2545   98.0629  151.9601 H        14        0    0.0000
    184 H         163.9251   98.6096  152.1079 H        14        0    0.0000
    185 H         162.6073   97.1161  154.0292 H        14        0    0.0000
    186 H         164.3583   97.0658  153.8311 H        14        0    0.0000
    187 H         164.3744   94.9773  152.9880 H        14        0    0.0000
    188 H         161.7957   93.9013  153.0332 H        14        0    0.0000
    189 H         161.6596   95.2262  154.1839 H        14        0    0.0000
    190 H         163.4268   94.5951  150.8256 H        14        0    0.0000
    191 H         161.9485   95.4796  151.2187 H        14        0    0.0000
    192 H         163.1142   97.1338  149.9865 H        14        0    0.0000
    193 H         165.4787   95.7241  150.3994 H        14        0    0.0000
    194 H         165.6834   97.0566  151.5268 H        14        0    0.0000
    195 C         165.5640   97.6919  149.4636 C.3      15        0    0.0000
    196 C         165.9282   99.1120  149.9195 C.3      15        0    0.0000
    197 H         166.4509   97.2471  148.9942 H        15        0    0.0000
    198 H         164.7791   97.7076  148.6984 H        15        0    0.0000
    199 H         166.4827   99.0975  150.8652 H        15        0    0.0000
    200 H         166.5993   99.5490  149.1690 H        15        0    0.0000
    201 C         163.3384  101.9210  147.1756 C.3      16        0    0.0000
    202 C         164.4697  101.0299  147.6861 C.3      16        0    0.0000
    203 C         163.8584  100.1126  148.7594 C.3      16        0    0.0000
    204 C         164.6982  100.0766  150.0431 C.3      16        0    0.0000
    205 C         162.4305  100.6432  148.9601 C.3      16        0    0.0000
    206 C         162.0365  101.2380  147.6022 C.3      16        0    0.0000
    207 C         161.5734  100.1960  146.5677 C.3      16        0    0.0000
    208 H         163.4097  102.9006  147.6655 H        16        0    0.0000
    209 H         163.4053  102.0936  146.0968 H        16        0    0.0000
    210 H         165.2951  101.6411  148.0673 H        16        0    0.0000
    211 H         164.8713  100.4211  146.8675 H        16        0    0.0000
    212 H         163.7996   99.0976  148.3416 H        16        0    0.0000
    213 H         164.0780   99.7765  150.8957 H        16        0    0.0000
    214 H         165.0694  101.0852  150.2612 H        16        0    0.0000
    215 H         161.7459   99.8604  149.3013 H        16        0    0.0000
    216 H         162.4226  101.4390  149.7164 H        16        0    0.0000
    217 H         161.2495  101.9916  147.7333 H        16        0    0.0000
    218 H         161.9625   99.2000  146.8052 H        16        0    0.0000
    219 H         161.9751  100.4623  145.5825 H        16        0    0.0000
    220 C         159.7216  101.1670  150.0695 C.3      17        0    0.0000
    221 C         160.3318  100.2844  148.9776 C.3      17        0    0.0000
    222 C         159.3337  100.2890  147.8123 C.3      17        0    0.0000
    223 C         160.0238  100.1346  146.4542 C.3      17        0    0.0000
    224 C         158.5842  101.6121  148.0009 C.3      17        0    0.0000
    225 C         158.3801  101.6681  149.5185 C.3      17        0    0.0000
    226 C         158.0077  103.0505  150.0616 C.3      17        0    0.0000
    227 H         159.5798  100.6099  151.0018 H        17        0    0.0000
    228 H         160.4014  101.9992  150.2885 H        17        0    0.0000
    229 H         160.5091   99.2657  149.3389 H        17        0    0.0000
    230 H         161.3026  100.6956  148.6759 H        17        0    0.0000
    231 H         158.6264   99.4605  147.9638 H        17        0    0.0000
    232 H         159.6910  100.9376  145.7857 H        17        0    0.0000
    233 H         159.7296   99.1893  145.9834 H        17        0    0.0000
    234 H         157.6328  101.6240  147.4596 H        17        0    0.0000
    235 H         159.1892  102.4592  147.6543 H        17        0    0.0000
    236 H         157.6030  100.9407  149.7950 H        17        0    0.0000
    237 H         157.6453  102.9688  151.0931 H        17        0    0.0000
    238 H         157.1824  103.4621  149.4684 H        17        0    0.0000
    239 C         162.1114  103.2014  152.1478 C.3      18        0    0.0000
    240 C         160.7150  102.7894  151.6756 C.3      18        0    0.0000
    241 C         159.9631  104.0895  151.3381 C.3      18        0    0.0000
    242 C         159.1985  104.0465  150.0093 C.3      18        0    0.0000
    243 C         161.0468  105.1723  151.3529 C.3      18        0    0.0000
    244 C         162.0418  104.7077  152.4218 C.3      18        0    0.0000
    245 C         161.5691  105.0421  153.8493 C.3      18        0    0.0000
    246 H         162.4413  102.6109  153.0078 H        18        0    0.0000
    247 H         162.8274  103.0162  151.3368 H        18        0    0.0000
    248 H         160.7940  102.1092  150.8204 H        18        0    0.0000
    249 H         160.1871  102.2501  152.4707 H        18        0    0.0000
    250 H         159.2576  104.3016  152.1541 H        18        0    0.0000
    251 H         158.8069  105.0454  149.7832 H        18        0    0.0000
    252 H         159.8725  103.7761  149.1883 H        18        0    0.0000
    253 H         160.6325  106.1643  151.5600 H        18        0    0.0000
    254 H         161.5518  105.2206  150.3794 H        18        0    0.0000
    255 H         163.0190  105.1736  152.2422 H        18        0    0.0000
    256 H         162.3833  104.9256  154.5733 H        18        0    0.0000
    257 H         160.7781  104.3423  154.1441 H        18        0    0.0000
    258 C         159.4536  107.5624  150.7467 C.3      19        0    0.0000
    259 C         160.2729  106.4901  151.4691 C.3      19        0    0.0000
    260 C         161.0435  107.2073  152.5921 C.3      19        0    0.0000
    261 C         160.9980  106.4866  153.9451 C.3      19        0    0.0000
    262 C         160.4169  108.6040  152.6536 C.3      19        0    0.0000
    263 C         160.0168  108.9114  151.2066 C.3      19        0    0.0000
    264 C         161.2088  109.3913  150.3568 C.3      19        0    0.0000
    265 H         159.4688  107.4243  149.6614 H        19        0    0.0000
    266 H         158.4066  107.4819  151.0664 H        19        0    0.0000
    267 H         159.6109  105.7016  151.8436 H        19        0    0.0000
    268 H         160.9790  106.0181  150.7760 H        19        0    0.0000
    269 H         162.0908  107.3168  152.2762 H        19        0    0.0000
    270 H         161.5923  107.0481  154.6758 H        19        0    0.0000
    271 H         159.9713  106.4550  154.3277 H        19        0    0.0000
    272 H         161.1067  109.3449  153.0707 H        19        0    0.0000
    273 H         159.5201  108.5928  153.2866 H        19        0    0.0000
    274 H         159.2300  109.6764  151.1970 H        19        0    0.0000
    275 H         161.6916  108.5526  149.8432 H        19        0    0.0000
    276 H         161.9644  109.8416  151.0114 H        19        0    0.0000
    277 C         160.7784  110.4580  149.3086 C.3      20        0    0.0000
    278 C         161.9178  111.3817  148.8546 C.3      20        0    0.0000
    279 H         160.4139  109.9100  148.4303 H        20        0    0.0000
    280 H         159.9284  111.0330  149.6942 H        20        0    0.0000
    281 H         162.4947  111.7532  149.7096 H        20        0    0.0000
    282 H         162.6106  110.7916  148.2412 H        20        0    0.0000
    283 C         162.0104  115.6249  149.9544 C.3      21        0    0.0000
    284 C         162.3755  114.1540  149.7602 C.3      21        0    0.0000
    285 C         162.2506  113.8637  148.2545 C.3      21        0    0.0000
    286 C         161.4461  112.5882  147.9712 C.3      21        0    0.0000
    287 C         161.6324  115.1387  147.6604 C.3      21        0    0.0000
    288 C         162.1172  116.2733  148.5718 C.3      21        0    0.0000
    289 C         163.5501  116.7521  148.2752 C.3      21        0    0.0000
    290 H         160.9723  115.6896  150.3045 H        21        0    0.0000
    291 H         162.6372  116.1081  150.7105 H        21        0    0.0000
    292 H         161.7289  113.5160  150.3726 H        21        0    0.0000
    293 H         163.4069  113.9735  150.0851 H        21        0    0.0000
    294 H         163.2653  113.7444  147.8490 H        21        0    0.0000
    295 H         161.5187  112.3198  146.9108 H        21        0    0.0000
    296 H         160.3856  112.7756  148.1783 H        21        0    0.0000
    297 H         161.9123  115.2804  146.6119 H        21        0    0.0000
    298 H         160.5367  115.0867  147.7038 H        21        0    0.0000
    299 H         161.4307  117.1274  148.5102 H        21        0    0.0000
    300 H         164.1467  115.9582  147.8130 H        21        0    0.0000
    301 H         164.0474  117.0085  149.2185 H        21        0    0.0000
    302 C         161.9049  119.4810  144.4405 C.3      22        0    0.0000
    303 C         162.9265  118.4578  144.9343 C.3      22        0    0.0000
    304 C         162.4461  117.9874  146.3181 C.3      22        0    0.0000
    305 C         163.5680  118.0123  147.3645 C.3      22        0    0.0000
    306 C         161.2583  118.9031  146.6518 C.3      22        0    0.0000
    307 C         160.6504  119.2712  145.2924 C.3      22        0    0.0000
    308 C         159.7318  118.1879  144.6982 C.3      22        0    0.0000
    309 H         162.2983  120.4899  144.6192 H        22        0    0.0000
    310 H         161.7199  119.3920  143.3654 H        22        0    0.0000
    311 H         163.9287  118.8997  144.9583 H        22        0    0.0000
    312 H         162.9679  117.6028  144.2492 H        22        0    0.0000
    313 H         162.0762  116.9575  146.2143 H        22        0    0.0000
    314 H         163.4930  118.9149  147.9819 H        22        0    0.0000
    315 H         164.5378  118.0573  146.8545 H        22        0    0.0000
    316 H         160.5439  118.4196  147.3253 H        22        0    0.0000
    317 H         161.6098  119.8176  147.1472 H        22        0    0.0000
    318 H         160.0942  120.2141  145.3697 H        22        0    0.0000
    319 H         160.3017  117.2983  144.4092 H        22        0    0.0000
    320 H         159.2658  118.5723  143.7828 H        22        0    0.0000
    321 C         160.0904  120.3820  147.8666 C.3      23        0    0.0000
    322 C         160.1089  118.9125  147.4388 C.3      23        0    0.0000
    323 C         158.6762  118.5647  146.9967 C.3      23        0    0.0000
    324 C         158.5972  117.7812  145.6806 C.3      23        0    0.0000
    325 C         157.9629  119.9180  146.9137 C.3      23        0    0.0000
    326 C         158.6137  120.7651  148.0125 C.3      23        0    0.0000
    327 C         158.0428  120.4547  149.4092 C.3      23        0    0.0000
    328 H         160.6818  120.5503  148.7716 H        23        0    0.0000
    329 H         160.5420  120.9874  147.0702 H        23        0    0.0000
    330 H         160.8478  118.7628  146.6439 H        23        0    0.0000
    331 H         160.4041  118.2741  148.2797 H        23        0    0.0000
    332 H         158.2016  117.9773  147.7958 H        23        0    0.0000
    333 H         158.6866  116.7087  145.8906 H        23        0    0.0000
    334 H         157.6219  117.9313  145.2036 H        23        0    0.0000
    335 H         156.8797  119.8191  147.0384 H        23        0    0.0000
    336 H         158.1428  120.3853  145.9368 H        23        0    0.0000
    337 H         158.4721  121.8300  147.7885 H        23        0    0.0000
    338 H         158.8364  120.4284  150.1642 H        23        0    0.0000
    339 H         157.5788  119.4613  149.4001 H        23        0    0.0000
    340 C         155.3659  121.8742  146.4068 C.3      24        0    0.0000
    341 C         155.9597  120.9946  147.4982 C.3      24        0    0.0000
    342 C         156.0447  121.9465  148.6958 C.3      24        0    0.0000
    343 C         156.9618  121.4902  149.8346 C.3      24        0    0.0000
    344 C         156.3695  123.3278  148.0940 C.3      24        0    0.0000
    345 C         156.1281  123.1924  146.5778 C.3      24        0    0.0000
    346 C         155.4953  124.4107  145.8985 C.3      24        0    0.0000
    347 H         155.5086  121.4428  145.4112 H        24        0    0.0000
    348 H         154.2899  121.9956  146.5739 H        24        0    0.0000
    349 H         155.3310  120.1239  147.7087 H        24        0    0.0000
    350 H         156.9465  120.6345  147.1871 H        24        0    0.0000
    351 H         155.0316  122.0170  149.1197 H        24        0    0.0000
    352 H         157.4626  122.3661  150.2638 H        24        0    0.0000
    353 H         156.3510  121.0536  150.6336 H        24        0    0.0000
    354 H         157.4046  123.6376  148.2736 H        24        0    0.0000
    355 H         155.7341  124.0886  148.5600 H        24        0    0.0000
    356 H         157.1153  123.0526  146.1120 H        24        0    0.0000
    357 H         155.0147  124.0913  144.9661 H        24        0    0.0000
    358 H         154.7013  124.8078  146.5421 H        24        0    0.0000
    359 C         154.5445  128.7850  145.5836 C.3      25        0    0.0000
    360 C         154.7898  127.3677  146.0784 C.3      25        0    0.0000
    361 C         155.8028  126.8230  145.0694 C.3      25        0    0.0000
    362 C         156.4994  125.5579  145.5766 C.3      25        0    0.0000
    363 C         156.7415  128.0161  144.8127 C.3      25        0    0.0000
    364 C         155.9457  129.2789  145.2020 C.3      25        0    0.0000
    365 C         155.9816  130.4210  144.1785 C.3      25        0    0.0000
    366 H         154.0854  129.4128  146.3537 H        25        0    0.0000
    367 H         153.8667  128.7603  144.7235 H        25        0    0.0000
    368 H         155.2106  127.3866  147.0911 H        25        0    0.0000
    369 H         153.8691  126.7766  146.1008 H        25        0    0.0000
    370 H         155.2701  126.5981  144.1339 H        25        0    0.0000
    371 H         157.2269  125.2041  144.8365 H        25        0    0.0000
    372 H         157.0653  125.7956  146.4853 H        25        0    0.0000
    373 H         157.6413  127.9546  145.4374 H        25        0    0.0000
    374 H         157.0791  128.0252  143.7710 H        25        0    0.0000
    375 H         156.4090  129.6711  146.1196 H        25        0    0.0000
    376 H         155.5517  131.3220  144.6320 H        25        0    0.0000
    377 H         155.3381  130.1588  143.3302 H        25        0    0.0000
    378 C         157.7903  134.2755  142.5251 C.3      26        0    0.0000
    379 C         156.8373  133.2095  143.0715 C.3      26        0    0.0000
    380 C         157.3595  131.8522  142.5674 C.3      26        0    0.0000
    381 C         157.4021  130.7573  143.6405 C.3      26        0    0.0000
    382 C         158.7469  132.1646  141.9973 C.3      26        0    0.0000
    383 C         158.6233  133.5863  141.4389 C.3      26        0    0.0000
    384 C         157.9535  133.6165  140.0519 C.3      26        0    0.0000
    385 H         157.2524  135.1612  142.1738 H        26        0    0.0000
    386 H         158.4552  134.6031  143.3346 H        26        0    0.0000
    387 H         156.7946  133.2698  144.1646 H        26        0    0.0000
    388 H         155.8207  133.3791  142.6979 H        26        0    0.0000
    389 H         156.7168  131.5214  141.7391 H        26        0    0.0000
    390 H         157.8368  129.8461  143.2126 H        26        0    0.0000
    391 H         158.0512  131.0595  144.4704 H        26        0    0.0000
    392 H         159.0528  131.4354  141.2401 H        26        0    0.0000
    393 H         159.5002  132.1494  142.7956 H        26        0    0.0000
    394 H         159.6186  134.0439  141.3738 H        26        0    0.0000
    395 H         157.2469  134.4500  139.9718 H        26        0    0.0000
    396 H         157.3773  132.6952  139.9059 H        26        0    0.0000
    397 C         159.0019  133.7185  138.9064 C.3      27        0    0.0000
    398 C         158.5373  134.5591  137.7085 C.3      27        0    0.0000
    399 H         159.8923  134.1975  139.3335 H        27        0    0.0000
    400 H         159.3066  132.7129  138.5938 H        27        0    0.0000
    401 H         157.7964  134.0201  137.1064 H        27        0    0.0000
    402 H         158.0352  135.4550  138.0955 H        27        0    0.0000
    403 C         162.7678  132.9541  136.0455 C.3      28        0    0.0000
    404 C         161.2548  133.1073  136.0711 C.3      28        0    0.0000
    405 C         161.0320  134.3143  136.9911 C.3      28        0    0.0000
    406 C         159.7052  135.0568  136.7881 C.3      28        0    0.0000
    407 C         162.3019  135.1800  136.8581 C.3      28        0    0.0000
    408 C         163.2568  134.3998  135.9361 C.3      28        0    0.0000
    409 C         164.7402  134.5356  136.2883 C.3      28        0    0.0000
    410 H         163.1180  132.4871  136.9741 H        28        0    0.0000
    411 H         163.1032  132.3391  135.2049 H        28        0    0.0000
    412 H         160.8880  133.2889  135.0551 H        28        0    0.0000
    413 H         160.7595  132.2077  136.4498 H        28        0    0.0000
    414 H         161.0188  133.9334  138.0232 H        28        0    0.0000
    415 H         159.8644  136.1262  136.9707 H        28        0    0.0000
    416 H         159.3970  134.9596  135.7404 H        28        0    0.0000
    417 H         162.7410  135.3245  137.8531 H        28        0    0.0000
    418 H         162.1015  136.1772  136.4524 H        28        0    0.0000
    419 H         163.0923  134.7417  134.9038 H        28        0    0.0000
    420 H         165.0779  133.6560  136.8490 H        28        0    0.0000
    421 H         165.3306  134.5657  135.3648 H        28        0    0.0000
    422 C         168.7070  136.1001  138.0798 C.3      29        0    0.0000
    423 C         167.4591  135.2570  137.8582 C.3      29        0    0.0000
    424 C         166.5187  136.2232  137.1304 C.3      29        0    0.0000
    425 C         165.0419  135.8169  137.1153 C.3      29        0    0.0000
    426 C         166.8199  137.6109  137.7294 C.3      29        0    0.0000
    427 C         168.1331  137.4508  138.5202 C.3      29        0    0.0000
    428 C         169.1016  138.6347  138.4388 C.3      29        0    0.0000
    429 H         169.3646  135.6655  138.8390 H        29        0    0.0000
    430 H         169.2721  136.1777  137.1444 H        29        0    0.0000
    431 H         167.6703  134.3626  137.2638 H        29        0    0.0000
    432 H         167.0533  134.9357  138.8238 H        29        0    0.0000
    433 H         166.8447  136.2550  136.0798 H        29        0    0.0000
    434 H         164.7036  135.6585  138.1462 H        29        0    0.0000
    435 H         164.4465  136.6447  136.7121 H        29        0    0.0000
    436 H         166.0299  137.9659  138.3999 H        29        0    0.0000
    437 H         166.8956  138.3489  136.9235 H        29        0    0.0000
    438 H         167.8534  137.3483  139.5796 H        29        0    0.0000
    439 H         169.8762  138.5170  139.2057 H        29        0    0.0000
    440 H         169.6127  138.6136  137.4690 H        29        0    0.0000
    441 C         165.7864  139.0438  141.1280 C.3      30        0    0.0000
    442 C         166.9836  138.7187  140.2478 C.3      30        0    0.0000
    443 C         167.0726  139.9371  139.3266 C.3      30        0    0.0000
    444 C         168.4267  140.0276  138.6187 C.3      30        0    0.0000
    445 C         166.7509  141.1223  140.2552 C.3      30        0    0.0000
    446 C         165.9706  140.5327  141.4482 C.3      30        0    0.0000
    447 C         164.6895  141.2835  141.8324 C.3      30        0    0.0000
    448 H         165.7669  138.4302  142.0341 H        30        0    0.0000
    449 H         164.8615  138.8518  140.5735 H        30        0    0.0000
    450 H         167.8884  138.6180  140.8595 H        30        0    0.0000
    451 H         166.8414  137.7879  139.6904 H        30        0    0.0000
    452 H         166.2713  139.8613  138.5771 H        30        0    0.0000
    453 H         168.3092  140.5016  137.6369 H        30        0    0.0000
    454 H         169.0973  140.6712  139.2004 H        30        0    0.0000
    455 H         167.6683  141.5951  140.6275 H        30        0    0.0000
    456 H         166.1924  141.8951  139.7164 H        30        0    0.0000
    457 H         166.6384  140.5934  142.3204 H        30        0    0.0000
    458 H         164.1636  140.7193  142.6118 H        30        0    0.0000
    459 H         164.0216  141.3155  140.9633 H        30        0    0.0000
    460 C         161.6283  144.4926  142.9809 C.3      31        0    0.0000
    461 C         162.4160  143.2046  142.7965 C.3      31        0    0.0000
    462 C         163.7227  143.6737  142.1444 C.3      31        0    0.0000
    463 C         164.9228  142.7374  142.3346 C.3      31        0    0.0000
    464 C         163.9320  145.1241  142.6260 C.3      31        0    0.0000
    465 C         162.6924  145.4783  143.4679 C.3      31        0    0.0000
    466 C         162.2306  146.9326  143.3468 C.3      31        0    0.0000
    467 H         161.1981  144.8149  142.0248 H        31        0    0.0000
    468 H         160.8129  144.3747  143.7012 H        31        0    0.0000
    469 H         162.5859  142.7365  143.7722 H        31        0    0.0000
    470 H         161.8811  142.4850  142.1688 H        31        0    0.0000
    471 H         163.5400  143.7263  141.0607 H        31        0    0.0000
    472 H         165.7879  143.1562  141.8069 H        31        0    0.0000
    473 H         165.1883  142.7069  143.3980 H        31        0    0.0000
    474 H         164.0189  145.7813  141.7518 H        31        0    0.0000
    475 H         164.8476  145.2542  143.2125 H        31        0    0.0000
    476 H         162.9163  145.2512  144.5204 H        31        0    0.0000
    477 H         161.2043  147.0358  143.7186 H        31        0    0.0000
    478 H         162.8605  147.5668  143.9819 H        31        0    0.0000
    479 C         162.3017  147.4614  141.8867 C.3      32        0    0.0000
    480 C         161.6391  148.8319  141.6865 C.3      32        0    0.0000
    481 H         163.3660  147.5579  141.6362 H        32        0    0.0000
    482 H         161.8853  146.7131  141.2021 H        32        0    0.0000
    483 H         162.2486  149.6360  142.1152 H        32        0    0.0000
    484 H         161.5774  149.0259  140.6080 H        32        0    0.0000
    485 C         158.3069  151.2546  140.1189 C.3      33        0    0.0000
    486 C         158.2241  150.2196  141.2398 C.3      33        0    0.0000
    487 C         159.5505  150.3019  142.0150 C.3      33        0    0.0000
    488 C         160.1773  148.9207  142.2467 C.3      33        0    0.0000
    489 C         160.4270  151.2567  141.1900 C.3      33        0    0.0000
    490 C         159.4375  152.2104  140.5085 C.3      33        0    0.0000
    491 C         158.9348  153.3500  141.4135 C.3      33        0    0.0000
    492 H         158.5713  150.7445  139.1838 H        33        0    0.0000
    493 H         157.3498  151.7587  139.9526 H        33        0    0.0000
    494 H         158.0330  149.2233  140.8263 H        33        0    0.0000
    495 H         157.3903  150.4547  141.9118 H        33        0    0.0000
    496 H         159.3436  150.7689  142.9883 H        33        0    0.0000
    497 H         159.5587  148.1400  141.7892 H        33        0    0.0000
    498 H         160.2056  148.7119  143.3230 H        33        0    0.0000
    499 H         161.1655  151.7746  141.8097 H        33        0    0.0000
    500 H         160.9768  150.6997  140.4201 H        33        0    0.0000
    501 H         159.8874  152.6390  139.6038 H        33        0    0.0000
    502 H         159.7176  154.0970  141.5838 H        33        0    0.0000
    503 H         158.6730  152.9410  142.3969 H        33        0    0.0000
    504 C         156.4483  156.9636  142.8846 C.3      34        0    0.0000
    505 C         157.5520  156.2001  142.1686 C.3      34        0    0.0000
    506 C         156.9021  154.8444  141.8846 C.3      34        0    0.0000
    507 C         157.6719  154.0449  140.8304 C.3      34        0    0.0000
    508 C         155.4582  155.2059  141.4910 C.3      34        0    0.0000
    509 C         155.1878  156.6020  142.0888 C.3      34        0    0.0000
    510 C         153.8662  156.7456  142.8541 C.3      34        0    0.0000
    511 H         156.6340  158.0423  142.8884 H        34        0    0.0000
    512 H         156.3890  156.6303  143.9263 H        34        0    0.0000
    513 H         157.8247  156.7113  141.2373 H        34        0    0.0000
    514 H         158.4516  156.1069  142.7846 H        34        0    0.0000
    515 H         156.8689  154.2747  142.8247 H        34        0    0.0000
    516 H         157.0195  153.2883  140.3786 H        34        0    0.0000
    517 H         157.9818  154.7168  140.0212 H        34        0    0.0000
    518 H         155.3448  155.2565  140.4008 H        34        0    0.0000
    519 H         154.7579  154.4431  141.8472 H        34        0    0.0000
    520 H         155.1319  157.3008  141.2408 H        34        0    0.0000
    521 H         153.1940  155.9292  142.5645 H        34        0    0.0000
    522 H         153.3774  157.6783  142.5481 H        34        0    0.0000
    523 C         155.4992  159.3248  146.7239 C.3      35        0    0.0000
    524 C         154.4297  158.8876  145.7195 C.3      35        0    0.0000
    525 C         155.0567  157.7630  144.8851 C.3      35        0    0.0000
    526 C         154.0173  156.7475  144.4025 C.3      35        0    0.0000
    527 C         156.1242  157.1879  145.8220 C.3      35        0    0.0000
    528 C         156.7278  158.4462  146.4546 C.3      35        0    0.0000
    529 C         157.5505  158.1921  147.7207 C.3      35        0    0.0000
    530 H         155.7434  160.3867  146.6117 H        35        0    0.0000
    531 H         155.1213  159.1845  147.7438 H        35        0    0.0000
    532 H         154.1148  159.7208  145.0821 H        35        0    0.0000
    533 H         153.5418  158.5388  146.2604 H        35        0    0.0000
    534 H         155.5587  158.2182  144.0189 H        35        0    0.0000
    535 H         153.0440  156.9865  144.8476 H        35        0    0.0000
    536 H         154.2824  155.7402  144.7445 H        35        0    0.0000
    537 H         156.8735  156.6037  145.2785 H        35        0    0.0000
    538 H         155.6709  156.5432  146.5854 H        35        0    0.0000
    539 H         157.3522  158.9515  145.7033 H        35        0    0.0000
    540 H         158.1283  157.2659  147.6193 H        35        0    0.0000
    541 H         156.8723  158.0500  148.5706 H        35        0    0.0000
    542 C         158.7048  159.6377  151.8330 C.3      36        0    0.0000
    543 C         157.9848  159.1716  150.5753 C.3      36        0    0.0000
    544 C         159.0423  159.3672  149.4839 C.3      36        0    0.0000
    545 C         158.5117  159.3680  148.0470 C.3      36        0    0.0000
    546 C         159.8294  160.6245  149.9022 C.3      36        0    0.0000
    547 C         159.4274  160.9046  151.3634 C.3      36        0    0.0000
    548 C         160.5555  161.3947  152.2764 C.3      36        0    0.0000
    549 H         158.0075  159.8414  152.6515 H        36        0    0.0000
    550 H         159.4048  158.8638  152.1669 H        36        0    0.0000
    551 H         157.6611  158.1290  150.6521 H        36        0    0.0000
    552 H         157.0977  159.7917  150.4055 H        36        0    0.0000
    553 H         159.7390  158.5187  149.5591 H        36        0    0.0000
    554 H         157.9885  160.3130  147.8590 H        36        0    0.0000
    555 H         159.3590  159.3334  147.3520 H        36        0    0.0000
    556 H         159.5957  161.4983  149.2843 H        36        0    0.0000
    557 H         160.9027  160.4407  149.7836 H        36        0    0.0000
    558 H         158.6763  161.7085  151.3359 H        36        0    0.0000
    559 H         160.1804  161.4619  153.3045 H        36        0    0.0000
    560 H         161.3604  160.6502  152.2827 H        36        0    0.0000
    561 C         159.1595  165.6809  153.0333 C.3      37        0    0.0000
    562 C         159.2628  164.1557  152.9543 C.3      37        0    0.0000
    563 C         160.0613  163.8342  151.6782 C.3      37        0    0.0000
    564 C         161.1537  162.7751  151.8705 C.3      37        0    0.0000
    565 C         160.6304  165.1853  151.2332 C.3      37        0    0.0000
    566 C         159.5697  166.2081  151.6540 C.3      37        0    0.0000
    567 C         158.3954  166.2797  150.6595 C.3      37        0    0.0000
    568 H         158.1647  166.0058  153.3523 H        37        0    0.0000
    569 H         159.8728  166.0447  153.7841 H        37        0    0.0000
    570 H         159.7354  163.7645  153.8620 H        37        0    0.0000
    571 H         158.2639  163.7085  152.8907 H        37        0    0.0000
    572 H         159.3565  163.4903  150.9078 H        37        0    0.0000
    573 H         161.7090  162.6517  150.9331 H        37        0    0.0000
    574 H         161.8762  163.1031  152.6268 H        37        0    0.0000
    575 H         160.8405  165.2079  150.1589 H        37        0    0.0000
    576 H         161.5705  165.3957  151.7593 H        37        0    0.0000
    577 H         160.0309  167.1996  151.7464 H        37        0    0.0000
    578 H         157.5853  165.6036  150.9544 H        37        0    0.0000
    579 H         158.7368  165.9550  149.6693 H        37        0    0.0000
    580 C         157.6732  169.6045  153.8146 C.3      38        0    0.0000
    581 C         158.3118  168.5319  152.9455 C.3      38        0    0.0000
    582 C         157.2793  168.3105  151.8328 C.3      38        0    0.0000
    583 C         157.8368  167.7263  150.5286 C.3      38        0    0.0000
    584 C         156.5267  169.6495  151.6898 C.3      38        0    0.0000
    585 C         157.0860  170.5738  152.7868 C.3      38        0    0.0000
    586 C         156.0588  171.5227  153.4094 C.3      38        0    0.0000
    587 H         156.8862  169.1669  154.4409 H        38        0    0.0000
    588 H         158.4033  170.0888  154.4703 H        38        0    0.0000
    589 H         159.2676  168.8980  152.5553 H        38        0    0.0000
    590 H         158.5095  167.6142  153.5082 H        38        0    0.0000
    591 H         156.5498  167.5797  152.2124 H        38        0    0.0000
    592 H         157.0446  167.7292  149.7703 H        38        0    0.0000
    593 H         158.6324  168.3811  150.1540 H        38        0    0.0000
    594 H         155.4531  169.4720  151.8297 H        38        0    0.0000
    595 H         156.6462  170.1060  150.7016 H        38        0    0.0000
    596 H         157.9109  171.1589  152.3547 H        38        0    0.0000
    597 H         156.3107  171.7171  154.4586 H        38        0    0.0000
    598 H         156.0980  172.4888  152.8922 H        38        0    0.0000
    599 C         152.3900  172.3878  156.0658 C.3      39        0    0.0000
    600 C         153.7448  171.8824  155.5899 C.3      39        0    0.0000
    601 C         153.5689  171.8135  154.0694 C.3      39        0    0.0000
    602 C         154.6083  170.9700  153.3249 C.3      39        0    0.0000
    603 C         152.0995  171.4039  153.8491 C.3      39        0    0.0000
    604 C         151.4054  171.5801  155.2139 C.3      39        0    0.0000
    605 C         149.9765  172.1295  155.1620 C.3      39        0    0.0000
    606 H         152.2432  172.2172  157.1368 H        39        0    0.0000
    607 H         152.3101  173.4644  155.8788 H        39        0    0.0000
    608 H         154.5572  172.5560  155.8798 H        39        0    0.0000
    609 H         153.9467  170.8981  156.0265 H        39        0    0.0000
    610 H         153.6707  172.8414  153.6897 H        39        0    0.0000
    611 H         154.5961  169.9500  153.7270 H        39        0    0.0000
    612 H         154.3205  170.8960  152.2695 H        39        0    0.0000
    613 H         151.9923  170.3662  153.5152 H        39        0    0.0000
    614 H         151.6594  172.0279  153.0639 H        39        0    0.0000
    615 H         151.3390  170.5791  155.6661 H        39        0    0.0000
    616 H         149.6673  172.4190  156.1733 H        39        0    0.0000
    617 H         149.9656  173.0429  154.5556 H        39        0    0.0000
    618 C         148.3476  170.0103  151.0945 C.3      40        0    0.0000
    619 C         149.3770  170.4612  152.1337 C.3      40        0    0.0000
    620 C         148.6407  171.4042  153.1022 C.3      40        0    0.0000
    621 C         148.9277  171.1324  154.5840 C.3      40        0    0.0000
    622 C         147.1592  171.2292  152.7532 C.3      40        0    0.0000
    623 C         147.1480  170.9520  151.2461 C.3      40        0    0.0000
    624 C         147.2797  172.2396  150.4108 C.3      40        0    0.0000
    625 H         148.7693  169.9914  150.0851 H        40        0    0.0000
    626 H         148.0328  168.9858  151.3308 H        40        0    0.0000
    627 H         149.8097  169.5889  152.6357 H        40        0    0.0000
    628 H         150.2007  170.9967  151.6473 H        40        0    0.0000
    629 H         148.9280  172.4380  152.8622 H        40        0    0.0000
    630 H         147.9989  171.2328  155.1582 H        40        0    0.0000
    631 H         149.2779  170.1033  154.7237 H        40        0    0.0000
    632 H         146.5665  172.1077  153.0284 H        40        0    0.0000
    633 H         146.7403  170.3663  153.2870 H        40        0    0.0000
    634 H         146.2197  170.4337  150.9743 H        40        0    0.0000
    635 H         147.9476  172.0898  149.5554 H        40        0    0.0000
    636 H         147.7244  173.0296  151.0276 H        40        0    0.0000
    637 C         143.3262  170.1560  149.2160 C.3      41        0    0.0000
    638 C         144.7446  170.4419  149.7151 C.3      41        0    0.0000
    639 C         145.2183  171.7142  148.9897 C.3      41        0    0.0000
    640 C         145.8973  172.7424  149.9028 C.3      41        0    0.0000
    641 C         143.9538  172.2685  148.3258 C.3      41        0    0.0000
    642 C         143.1286  171.0271  147.9706 C.3      41        0    0.0000
    643 C         143.6140  170.3499  146.6749 C.3      41        0    0.0000
    644 H         143.1643  169.0885  149.0385 H        41        0    0.0000
    645 H         142.6108  170.4655  149.9886 H        41        0    0.0000
    646 H         144.7439  170.5490  150.8054 H        41        0    0.0000
    647 H         145.4104  169.6055  149.4723 H        41        0    0.0000
    648 H         145.9188  171.4180  148.1958 H        41        0    0.0000
    649 H         146.0490  173.6762  149.3484 H        41        0    0.0000
    650 H         145.2527  172.9810  150.7566 H        41        0    0.0000
    651 H         144.1865  172.8882  147.4537 H        41        0    0.0000
    652 H         143.3919  172.8909  149.0342 H        41        0    0.0000
    653 H         142.0725  171.3054  147.8636 H        41        0    0.0000
    654 H         142.8371  169.7043  146.2507 H        41        0    0.0000
    655 H         144.4739  169.7078  146.8999 H        41        0    0.0000
    656 C         143.3571  173.7844  148.3042 C.3      42        0    0.0000
    657 C         144.4381  173.0726  147.4922 C.3      42        0    0.0000
    658 C         143.8520  172.8361  146.0895 C.3      42        0    0.0000
    659 C         144.0552  171.3935  145.6081 C.3      42        0    0.0000
    660 C         142.3785  173.2557  146.2055 C.3      42        0    0.0000
    661 C         142.3630  174.3459  147.2845 C.3      42        0    0.0000
    662 C         142.7870  175.7377  146.7809 C.3      42        0    0.0000
    663 H         142.8470  173.0480  148.9383 H        42        0    0.0000
    664 H         143.7762  174.5472  148.9679 H        42        0    0.0000
    665 H         144.7408  172.1448  147.9899 H        42        0    0.0000
    666 H         145.3316  173.7033  147.4158 H        42        0    0.0000
    667 H         144.3575  173.5203  145.3933 H        42        0    0.0000
    668 H         145.1047  171.2257  145.3397 H        42        0    0.0000
    669 H         143.4657  171.2290  144.6981 H        42        0    0.0000
    670 H         141.9714  173.5935  145.2475 H        42        0    0.0000
    671 H         141.7666  172.4087  146.5423 H        42        0    0.0000
    672 H         141.3663  174.4142  147.7389 H        42        0    0.0000
    673 H         143.3972  175.6635  145.8744 H        42        0    0.0000
    674 H         143.4129  176.2212  147.5410 H        42        0    0.0000
    675 C         141.5636  176.6582  146.5095 C.3      43        0    0.0000
    676 C         141.9091  177.9476  145.7508 C.3      43        0    0.0000
    677 H         140.8618  176.0795  145.8954 H        43        0    0.0000
    678 H         141.0488  176.8761  147.4525 H        43        0    0.0000
    679 H         142.5807  178.5868  146.3358 H        43        0    0.0000
    680 H         142.4545  177.6706  144.8395 H        43        0    0.0000
    681 C         141.7669  181.3406  142.7218 C.3      44        0    0.0000
    682 C         142.0751  180.4408  143.9104 C.3      44        0    0.0000
    683 C         140.8461  179.5281  143.9757 C.3      44        0    0.0000
    684 C         140.6568  178.7739  145.2954 C.3      44        0    0.0000
    685 C         139.6610  180.4116  143.5393 C.3      44        0    0.0000
    686 C         140.2863  181.6788  142.9240 C.3      44        0    0.0000
    687 C         139.5661  182.2401  141.6942 C.3      44        0    0.0000
    688 H         142.3959  182.2362  142.7131 H        44        0    0.0000
    689 H         141.9410  180.7936  141.7886 H        44        0    0.0000
    690 H         143.0005  179.8747  143.7655 H        44        0    0.0000
    691 H         142.1860  181.0482  144.8154 H        44        0    0.0000
    692 H         140.9747  178.7637  143.1946 H        44        0    0.0000
    693 H         140.4023  179.4914  146.0845 H        44        0    0.0000
    694 H         139.8018  178.0940  145.2002 H        44        0    0.0000
    695 H         139.0098  180.6930  144.3739 H        44        0    0.0000
    696 H         139.0340  179.8592  142.8311 H        44        0    0.0000
    697 H         140.2404  182.4609  143.6969 H        44        0    0.0000
    698 H         140.1233  183.1059  141.3172 H        44        0    0.0000
    699 H         139.5776  181.4870  140.8974 H        44        0    0.0000
    700 C         136.5875  184.2356  138.8716 C.3      45        0    0.0000
    701 C         137.6942  183.4314  139.5588 C.3      45        0    0.0000
    702 C         137.6475  183.8160  141.0434 C.3      45        0    0.0000
    703 C         138.0912  182.6693  141.9560 C.3      45        0    0.0000
    704 C         136.1958  184.2645  141.2415 C.3      45        0    0.0000
    705 C         135.9183  185.0727  139.9696 C.3      45        0    0.0000
    706 C         134.4352  185.3263  139.6857 C.3      45        0    0.0000
    707 H         136.9910  184.8763  138.0802 H        45        0    0.0000
    708 H         135.8749  183.5477  138.4010 H        45        0    0.0000
    709 H         138.6762  183.6516  139.1267 H        45        0    0.0000
    710 H         137.5093  182.3599  139.4159 H        45        0    0.0000
    711 H         138.3063  184.6838  141.1934 H        45        0    0.0000
    712 H         137.4409  181.8021  141.7899 H        45        0    0.0000
    713 H         137.9754  182.9542  143.0083 H        45        0    0.0000
    714 H         136.0745  184.8700  142.1454 H        45        0    0.0000
    715 H         135.5237  183.4002  141.3123 H        45        0    0.0000
    716 H         136.4504  186.0326  140.0408 H        45        0    0.0000
    717 H         133.8480  185.2177  140.6050 H        45        0    0.0000
    718 H         134.0664  184.5688  138.9837 H        45        0    0.0000
    719 C         130.9699  188.3459  140.2677 C.3      46        0    0.0000
    720 C         132.1224  187.3821  140.5051 C.3      46        0    0.0000
    721 C         132.7165  187.1819  139.1051 C.3      46        0    0.0000
    722 C         134.1825  186.7315  139.0737 C.3      46        0    0.0000
    723 C         132.4059  188.4793  138.3307 C.3      46        0    0.0000
    724 C         131.5625  189.3517  139.2785 C.3      46        0    0.0000
    725 C         130.4818  190.1871  138.5878 C.3      46        0    0.0000
    726 H         130.1157  187.8158  139.8292 H        46        0    0.0000
    727 H         130.6378  188.8236  141.1945 H        46        0    0.0000
    728 H         132.8406  187.8338  141.1979 H        46        0    0.0000
    729 H         131.7823  186.4387  140.9437 H        46        0    0.0000
    730 H         132.1365  186.3816  138.6216 H        46        0    0.0000
    731 H         134.5319  186.7295  138.0343 H        46        0    0.0000
    732 H         134.7946  187.4668  139.6093 H        46        0    0.0000
    733 H         131.8469  188.2269  137.4210 H        46        0    0.0000
    734 H         133.3061  189.0148  138.0110 H        46        0    0.0000
    735 H         132.2434  190.0165  139.8298 H        46        0    0.0000
    736 H         129.5524  189.6109  138.5068 H        46        0    0.0000
    737 H         130.2545  191.0657  139.2032 H        46        0    0.0000
    738 C         127.9622  192.2104  135.3402 C.3      47        0    0.0000
    739 C         128.5201  191.2052  136.3381 C.3      47        0    0.0000
    740 C         129.9612  191.6857  136.5376 C.3      47        0    0.0000
    741 C         130.9120  190.6666  137.1730 C.3      47        0    0.0000
    742 C         130.3985  192.2374  135.1665 C.3      47        0    0.0000
    743 C         129.1075  192.3650  134.3343 C.3      47        0    0.0000
    744 C         129.0250  193.5972  133.4282 C.3      47        0    0.0000
    745 H         127.0443  191.8493  134.8660 H        47        0    0.0000
    746 H         127.7331  193.1516  135.8519 H        47        0    0.0000
    747 H         127.9542  191.2021  137.2749 H        47        0    0.0000
    748 H         128.4770  190.1972  135.9112 H        47        0    0.0000
    749 H         129.9189  192.5443  137.2247 H        47        0    0.0000
    750 H         130.9930  189.7935  136.5147 H        47        0    0.0000
    751 H         131.9148  191.1050  137.2396 H        47        0    0.0000
    752 H         131.1045  191.5796  134.6484 H        47        0    0.0000
    753 H         130.9126  193.1948  135.3043 H        47        0    0.0000
    754 H         129.0708  191.4870  133.6717 H        47        0    0.0000
    755 H         129.9979  194.1028  133.4219 H        47        0    0.0000
    756 H         128.8317  193.2730  132.3988 H        47        0    0.0000
    757 C         126.1621  196.1345  130.8516 C.3      48        0    0.0000
    758 C         126.9677  195.0001  131.4663 C.3      48        0    0.0000
    759 C         127.5476  195.6228  132.7426 C.3      48        0    0.0000
    760 C         127.9296  194.6250  133.8432 C.3      48        0    0.0000
    761 C         126.5485  196.7206  133.1622 C.3      48        0    0.0000
    762 C         125.4695  196.7593  132.0645 C.3      48        0    0.0000
    763 C         124.9171  198.1537  131.7587 C.3      48        0    0.0000
    764 H         126.8307  196.8539  130.3634 H        48        0    0.0000
    765 H         125.4463  195.7722  130.1075 H        48        0    0.0000
    766 H         126.3045  194.1557  131.6830 H        48        0    0.0000
    767 H         127.7528  194.6444  130.7917 H        48        0    0.0000
    768 H         128.4766  196.1374  132.4554 H        48        0    0.0000
    769 H         128.2838  195.1805  134.7197 H        48        0    0.0000
    770 H         127.0327  194.0791  134.1590 H        48        0    0.0000
    771 H         127.0790  197.6785  133.2311 H        48        0    0.0000
    772 H         126.0961  196.5378  134.1426 H        48        0    0.0000
    773 H         124.6459  196.0975  132.3695 H        48        0    0.0000
    774 H         124.3109  198.1285  130.8455 H        48        0    0.0000
    775 H         124.2495  198.4651  132.5710 H        48        0    0.0000
    776 C         129.0160  198.2546  130.6051 C.3      49        0    0.0000
    777 C         128.0206  197.6317  131.5876 C.3      49        0    0.0000
    778 C         127.3368  198.7955  132.3135 C.3      49        0    0.0000
    779 C         126.0390  199.2179  131.5993 C.3      49        0    0.0000
    780 C         128.4375  199.8640  132.3153 C.3      49        0    0.0000
    781 C         129.0730  199.7572  130.9268 C.3      49        0    0.0000
    782 C         130.4802  200.3634  130.8814 C.3      49        0    0.0000
    783 H         129.9921  197.7671  130.7085 H        49        0    0.0000
    784 H         128.6847  198.1013  129.5716 H        49        0    0.0000
    785 H         128.5748  197.0262  132.3160 H        49        0    0.0000
    786 H         127.3152  196.9619  131.0854 H        49        0    0.0000
    787 H         127.0970  198.5019  133.3435 H        49        0    0.0000
    788 H         126.2420  199.3459  130.5291 H        49        0    0.0000
    789 H         125.6800  200.1851  131.9668 H        49        0    0.0000
    790 H         129.1760  199.6234  133.0912 H        49        0    0.0000
    791 H         128.0674  200.8736  132.5175 H        49        0    0.0000
    792 H         128.4316  200.2891  130.2101 H        49        0    0.0000
    793 H         130.5317  201.1510  130.1207 H        49        0    0.0000
    794 H         131.2003  199.5904  130.5881 H        49        0    0.0000
    795 C         130.9048  200.9440  132.2609 C.3      50        0    0.0000
    796 C         132.4020  200.7943  132.5666 C.3      50        0    0.0000
    797 H         130.6669  202.0152  132.2405 H        50        0    0.0000
    798 H         130.2897  200.5014  133.0531 H        50        0    0.0000
    799 H         132.7718  199.8046  132.2741 H        50        0    0.0000
    800 H         132.9485  201.5259  131.9578 H        50        0    0.0000
    801 C         135.8083  203.3501  134.1690 C.3      51        0    0.0000
    802 C         134.6610  202.7270  133.3885 C.3      51        0    0.0000
    803 C         134.2217  201.5531  134.2728 C.3      51        0    0.0000
    804 C         132.7784  201.0783  134.0620 C.3      51        0    0.0000
    805 C         134.5800  201.9615  135.7165 C.3      51        0    0.0000
    806 C         135.2982  203.3193  135.6112 C.3      51        0    0.0000
    807 C         136.4247  203.5282  136.6263 C.3      51        0    0.0000
    808 H         136.7163  202.7451  134.0572 H        51        0    0.0000
    809 H         136.0299  204.3667  133.8299 H        51        0    0.0000
    810 H         133.8635  203.4663  133.2571 H        51        0    0.0000
    811 H         134.9762  202.3945  132.3945 H        51        0    0.0000
    812 H         134.8684  200.7000  134.0186 H        51        0    0.0000
    813 H         132.6162  200.1635  134.6444 H        51        0    0.0000
    814 H         132.0910  201.8322  134.4636 H        51        0    0.0000
    815 H         135.2371  201.1977  136.1508 H        51        0    0.0000
    816 H         133.7055  202.0366  136.3713 H        51        0    0.0000
    817 H         134.5475  204.1145  135.7279 H        51        0    0.0000
    818 H         136.6407  204.5974  136.7369 H        51        0    0.0000
    819 H         136.0972  203.1701  137.6096 H        51        0    0.0000
    820 C         139.7755  201.3336  138.3529 C.3      52        0    0.0000
    821 C         138.9343  202.6085  138.4591 C.3      52        0    0.0000
    822 C         138.9352  203.2498  137.0671 C.3      52        0    0.0000
    823 C         137.7291  202.7803  136.2319 C.3      52        0    0.0000
    824 C         140.2985  202.8155  136.5142 C.3      52        0    0.0000
    825 C         140.4477  201.3618  136.9701 C.3      52        0    0.0000
    826 C         141.9081  200.8959  136.9644 C.3      52        0    0.0000
    827 H         140.5033  201.3013  139.1715 H        52        0    0.0000
    828 H         139.1414  200.4446  138.4472 H        52        0    0.0000
    829 H         139.4147  203.2904  139.1722 H        52        0    0.0000
    830 H         137.9284  202.4041  138.8397 H        52        0    0.0000
    831 H         138.8992  204.3428  137.1612 H        52        0    0.0000
    832 H         137.5732  201.7072  136.3959 H        52        0    0.0000
    833 H         137.9140  202.9087  135.1600 H        52        0    0.0000
    834 H         141.0861  203.4367  136.9603 H        52        0    0.0000
    835 H         140.3813  202.9123  135.4275 H        52        0    0.0000
    836 H         139.8666  200.7236  136.2897 H        52        0    0.0000
    837 H         142.1693  200.4719  135.9879 H        52        0    0.0000
    838 H         142.0380  200.0964  137.7033 H        52        0    0.0000
    839 C         142.8867  202.0559  137.3064 C.3      53        0    0.0000
    840 C         144.3571  201.7449  136.9921 C.3      53        0    0.0000
    841 H         142.8000  202.2358  138.3857 H        53        0    0.0000
    842 H         142.5582  202.9755  136.8081 H        53        0    0.0000
    843 H         144.6892  200.9488  137.6707 H        53        0    0.0000
    844 H         144.4738  201.3572  135.9732 H        53        0    0.0000
    845 C         148.8812  203.0786  135.9532 C.3      54        0    0.0000
    846 C         147.3821  203.2285  135.7441 C.3      54        0    0.0000
    847 C         146.7946  202.5825  137.0005 C.3      54        0    0.0000
    848 C         145.3257  202.9586  137.2098 C.3      54        0    0.0000
    849 C         147.7427  203.0393  138.1244 C.3      54        0    0.0000
    850 C         149.0717  203.4155  137.4375 C.3      54        0    0.0000
    851 C         150.3348  202.8335  138.0846 C.3      54        0    0.0000
    852 H         149.4532  203.7498  135.3049 H        54        0    0.0000
    853 H         149.1824  202.0514  135.7207 H        54        0    0.0000
    854 H         147.1117  204.2896  135.6811 H        54        0    0.0000
    855 H         147.0448  202.7339  134.8281 H        54        0    0.0000
    856 H         146.8828  201.4909  136.8999 H        54        0    0.0000
    857 H         145.1785  203.3616  138.2188 H        54        0    0.0000
    858 H         145.0527  203.7568  136.5093 H        54        0    0.0000
    859 H         147.3470  203.9213  138.6433 H        54        0    0.0000
    860 H         147.8561  202.2528  138.8779 H        54        0    0.0000
    861 H         149.1631  204.5096  137.5093 H        54        0    0.0000
    862 H         150.4833  203.3017  139.0649 H        54        0    0.0000
    863 H         151.2042  203.1029  137.4730 H        54        0    0.0000
    864 C         153.6420  199.5463  138.7388 C.3      55        0    0.0000
    865 C         152.2066  199.5207  138.2364 C.3      55        0    0.0000
    866 C         151.5553  200.7113  138.9514 C.3      55        0    0.0000
    867 C         150.3116  201.2883  138.2634 C.3      55        0    0.0000
    868 C         152.6957  201.7176  139.2094 C.3      55        0    0.0000
    869 C         153.9861  201.0370  138.7173 C.3      55        0    0.0000
    870 C         155.2331  201.3534  139.5467 C.3      55        0    0.0000
    871 H         153.6952  199.1423  139.7571 H        55        0    0.0000
    872 H         154.3096  198.9582  138.1015 H        55        0    0.0000
    873 H         152.1977  199.6376  137.1473 H        55        0    0.0000
    874 H         151.7067  198.5769  138.4758 H        55        0    0.0000
    875 H         151.2249  200.3522  139.9375 H        55        0    0.0000
    876 H         150.2027  200.8225  137.2766 H        55        0    0.0000
    877 H         149.4217  201.0115  138.8411 H        55        0    0.0000
    878 H         152.7455  201.9326  140.2841 H        55        0    0.0000
    879 H         152.5461  202.6759  138.7011 H        55        0    0.0000
    880 H         154.1550  201.3364  137.6726 H        55        0    0.0000
    881 H         155.0867  202.2824  140.1104 H        55        0    0.0000
    882 H         155.3881  200.5583  140.2856 H        55        0    0.0000
    883 C         156.5133  201.4802  138.6741 C.3      56        0    0.0000
    884 C         157.6931  202.1521  139.3913 C.3      56        0    0.0000
    885 H         156.2458  202.0975  137.8069 H        56        0    0.0000
    886 H         156.7930  200.4949  138.2831 H        56        0    0.0000
    887 H         157.2880  202.8946  140.0908 H        56        0    0.0000
    888 H         158.2578  201.4302  139.9927 H        56        0    0.0000
    889 C         162.0598  201.9356  139.5748 C.3      57        0    0.0000
    890 C         160.5769  202.0508  139.9361 C.3      57        0    0.0000
    891 C         160.0118  203.2193  139.1087 C.3      57        0    0.0000
    892 C         158.6685  202.9187  138.4323 C.3      57        0    0.0000
    893 C         161.1161  203.5396  138.0963 C.3      57        0    0.0000
    894 C         162.4209  203.2299  138.8378 C.3      57        0    0.0000
    895 C         162.8427  204.3687  139.7855 C.3      57        0    0.0000
    896 H         162.6796  201.7411  140.4552 H        57        0    0.0000
    897 H         162.1924  201.0850  138.8939 H        57        0    0.0000
    898 H         160.0675  201.1018  139.7356 H        57        0    0.0000
    899 H         160.4601  202.2614  141.0056 H        57        0    0.0000
    900 H         159.8954  204.0876  139.7730 H        57        0    0.0000
    901 H         158.1937  203.8607  138.1333 H        57        0    0.0000
    902 H         158.8228  202.3360  137.5168 H        57        0    0.0000
    903 H         161.0623  204.5751  137.7447 H        57        0    0.0000
    904 H         161.0304  202.8865  137.2182 H        57        0    0.0000
    905 H         163.2219  203.0441  138.1110 H        57        0    0.0000
    906 H         163.2187  203.9739  140.7359 H        57        0    0.0000
    907 H         161.9692  204.9883  140.0212 H        57        0    0.0000
    908 C         163.9258  205.2833  139.1434 C.3      58        0    0.0000
    909 C         165.3410  204.6883  139.1711 C.3      58        0    0.0000
    910 H         163.6375  205.4271  138.0942 H        58        0    0.0000
    911 H         163.8999  206.2731  139.6140 H        58        0    0.0000
    912 H         165.8792  204.9814  140.0802 H        58        0    0.0000
    913 H         165.2501  203.5949  139.1991 H        58        0    0.0000
    914 C         168.6233  204.1908  135.8585 C.3      59        0    0.0000
    915 C         168.0537  203.5001  137.1006 C.3      59        0    0.0000
    916 C         167.6743  204.6128  138.0839 C.3      59        0    0.0000
    917 C         166.2042  205.0386  137.9099 C.3      59        0    0.0000
    918 C         168.6965  205.7047  137.7434 C.3      59        0    0.0000
    919 C         168.7866  205.6775  136.2155 C.3      59        0    0.0000
    920 C         170.0794  206.3170  135.6962 C.3      59        0    0.0000
    921 H         169.5726  203.7212  135.5767 H        59        0    0.0000
    922 H         167.9410  204.0786  135.0082 H        59        0    0.0000
    923 H         168.8366  202.8738  137.5470 H        59        0    0.0000
    924 H         167.2172  202.8387  136.8531 H        59        0    0.0000
    925 H         167.8248  204.2658  139.1142 H        59        0    0.0000
    926 H         165.7776  204.5158  137.0452 H        59        0    0.0000
    927 H         166.1234  206.1101  137.6980 H        59        0    0.0000
    928 H         169.6668  205.4448  138.1863 H        59        0    0.0000
    929 H         168.4205  206.6950  138.1178 H        59        0    0.0000
    930 H         167.9270  206.2278  135.8076 H        59        0    0.0000
    931 H         169.9267  207.3858  135.5066 H        59        0    0.0000
    932 H         170.3521  205.8598  134.7376 H        59        0    0.0000
    933 C         170.6418  203.2981  139.1341 C.3      60        0    0.0000
    934 C         170.3628  203.9604  137.7935 C.3      60        0    0.0000
    935 C         170.8853  205.3900  137.9843 C.3      60        0    0.0000
    936 C         171.2589  206.1287  136.6928 C.3      60        0    0.0000
    937 C         172.0088  205.2865  139.0362 C.3      60        0    0.0000
    938 C         172.0381  203.8147  139.4874 C.3      60        0    0.0000
    939 C         172.3739  203.6049  140.9660 C.3      60        0    0.0000
    940 H         169.9015  203.6183  139.8773 H        60        0    0.0000
    941 H         170.6094  202.2064  139.0662 H        60        0    0.0000
    942 H         170.8999  203.4263  137.0024 H        60        0    0.0000
    943 H         169.2972  203.9446  137.5440 H        60        0    0.0000
    944 H         170.0735  205.9695  138.4485 H        60        0    0.0000
    945 H         171.6609  207.1157  136.9512 H        60        0    0.0000
    946 H         172.0655  205.5833  136.1887 H        60        0    0.0000
    947 H         171.7750  205.9540  139.8749 H        60        0    0.0000
    948 H         172.9873  205.5923  138.6513 H        60        0    0.0000
    949 H         172.7706  203.2797  138.8656 H        60        0    0.0000
    950 H         171.4539  203.5690  141.5614 H        60        0    0.0000
    951 H         172.8677  202.6339  141.0912 H        60        0    0.0000
    952 C         173.2097  207.8401  139.4196 C.3      61        0    0.0000
    953 C         172.6218  206.4892  139.8354 C.3      61        0    0.0000
    954 C         173.7785  205.6848  140.4432 C.3      61        0    0.0000
    955 C         173.3053  204.7148  141.5293 C.3      61        0    0.0000
    956 C         174.7395  206.7730  140.9335 C.3      61        0    0.0000
    957 C         174.6972  207.7958  139.7934 C.3      61        0    0.0000
    958 C         175.2478  209.1780  140.1555 C.3      61        0    0.0000
    959 H         173.0795  208.0202  138.3471 H        61        0    0.0000
    960 H         172.6865  208.6447  139.9501 H        61        0    0.0000
    961 H         172.1842  205.9629  138.9803 H        61        0    0.0000
    962 H         171.8182  206.6495  140.5641 H        61        0    0.0000
    963 H         174.2678  205.1235  139.6339 H        61        0    0.0000
    964 H         172.7579  205.2720  142.2988 H        61        0    0.0000
    965 H         174.1656  204.2515  142.0264 H        61        0    0.0000
    966 H         175.7494  206.3835  141.0963 H        61        0    0.0000
    967 H         174.3848  207.2163  141.8724 H        61        0    0.0000
    968 H         175.2538  207.3891  138.9365 H        61        0    0.0000
    969 H         174.4256  209.8880  140.3034 H        61        0    0.0000
    970 H         175.8478  209.5587  139.3203 H        61        0    0.0000
    971 C         176.1376  209.1448  141.4283 C.3      62        0    0.0000
    972 C         177.5108  209.8071  141.2468 C.3      62        0    0.0000
    973 H         175.5951  209.6940  142.2085 H        62        0    0.0000
    974 H         176.2365  208.1122  141.7830 H        62        0    0.0000
    975 H         177.9043  209.6396  140.2374 H        62        0    0.0000
    976 H         177.3831  210.8916  141.3578 H        62        0    0.0000
    977 C         177.8442  206.1392  143.8984 C.3      63        0    0.0000
    978 C         177.4494  207.1296  142.8039 C.3      63        0    0.0000
    979 C         178.7412  207.8415  142.3664 C.3      63        0    0.0000
    980 C         178.5764  209.3659  142.3092 C.3      63        0    0.0000
    981 C         179.8079  207.3641  143.3640 C.3      63        0    0.0000
    982 C         179.3593  205.9566  143.7771 C.3      63        0    0.0000
    983 C         179.7220  204.8561  142.7632 C.3      63        0    0.0000
    984 H         177.6106  206.5793  144.8763 H        63        0    0.0000
    985 H         177.2862  205.2005  143.8248 H        63        0    0.0000
    986 H         176.6849  207.8220  143.1731 H        63        0    0.0000
    987 H         177.0157  206.5969  141.9494 H        63        0    0.0000
    988 H         179.0071  207.4724  141.3658 H        63        0    0.0000
    989 H         179.5374  209.8449  142.0890 H        63        0    0.0000
    990 H         178.2578  209.7327  143.2923 H        63        0    0.0000
    991 H         180.8129  207.3852  142.9315 H        63        0    0.0000
    992 H         179.8178  208.0121  144.2501 H        63        0    0.0000
    993 H         179.7800  205.6980  144.7572 H        63        0    0.0000
    994 H         179.3131  205.0787  141.7718 H        63        0    0.0000
    995 H         179.2711  203.9086  143.0824 H        63        0    0.0000
    996 C         181.7101  207.4218  145.1680 C.3      64        0    0.0000
    997 C         181.3057  206.9315  143.7753 C.3      64        0    0.0000
    998 C         182.0431  205.6041  143.5551 C.3      64        0    0.0000
    999 C         181.2587  204.6448  142.6556 C.3      64        0    0.0000
   1000 C         182.2768  205.0948  144.9813 C.3      64        0    0.0000
   1001 C         182.6750  206.3703  145.7314 C.3      64        0    0.0000
   1002 C         182.5949  206.2647  147.2568 C.3      64        0    0.0000
   1003 H         182.1859  208.4073  145.1228 H        64        0    0.0000
   1004 H         180.8153  207.5215  145.7940 H        64        0    0.0000
   1005 H         181.5701  207.6606  143.0019 H        64        0    0.0000
   1006 H         180.2180  206.7974  143.7370 H        64        0    0.0000
   1007 H         183.0183  205.8257  143.0975 H        64        0    0.0000
   1008 H         181.4894  203.6113  142.9405 H        64        0    0.0000
   1009 H         181.5709  204.7619  141.6112 H        64        0    0.0000
   1010 H         183.0637  204.3348  145.0204 H        64        0    0.0000
   1011 H         181.3589  204.6633  145.3998 H        64        0    0.0000
   1012 H         183.6966  206.6480  145.4333 H        64        0    0.0000
   1013 H         182.8701  205.2549  147.5831 H        64        0    0.0000
   1014 H         181.5591  206.4291  147.5771 H        64        0    0.0000
   1015 C         183.5031  207.3039  147.9697 C.3      65        0    0.0000
   1016 C         184.1821  206.7717  149.2398 C.3      65        0    0.0000
   1017 H         182.8585  208.1450  148.2551 H        65        0    0.0000
   1018 H         184.2390  207.6998  147.2600 H        65        0    0.0000
   1019 H         183.5344  207.0039  150.0949 H        65        0    0.0000
   1020 H         184.2834  205.6804  149.2106 H        65        0    0.0000
   1021 C         187.2708  208.7786  146.5269 C.3      66        0    0.0000
   1022 C         186.0587  208.0213  147.0748 C.3      66        0    0.0000
   1023 C         186.5323  207.2934  148.3457 C.3      66        0    0.0000
   1024 C         185.5765  207.4240  149.5380 C.3      66        0    0.0000
   1025 C         187.9127  207.8912  148.6364 C.3      66        0    0.0000
   1026 C         188.4937  208.2098  147.2546 C.3      66        0    0.0000
   1027 C         189.0844  206.9657  146.5645 C.3      66        0    0.0000
   1028 H         187.3346  208.7109  145.4367 H        66        0    0.0000
   1029 H         187.1655  209.8421  146.7774 H        66        0    0.0000
   1030 H         185.2357  208.7188  147.2656 H        66        0    0.0000
   1031 H         185.7007  207.2913  146.3395 H        66        0    0.0000
   1032 H         186.6653  206.2291  148.1043 H        66        0    0.0000
   1033 H         186.0144  206.9254  150.4108 H        66        0    0.0000
   1034 H         185.4429  208.4779  149.8080 H        66        0    0.0000
   1035 H         188.5421  207.2074  149.2150 H        66        0    0.0000
   1036 H         187.8130  208.8192  149.2142 H        66        0    0.0000
   1037 H         189.2716  208.9780  147.3508 H        66        0    0.0000
   1038 H         189.8336  207.2465  145.8160 H        66        0    0.0000
   1039 H         188.2877  206.4317  146.0331 H        66        0    0.0000
   1040 C         191.0014  207.6807  150.5845 C.3      67        0    0.0000
   1041 C         190.1864  207.8233  149.3000 C.3      67        0    0.0000
   1042 C         189.5329  206.4553  149.0382 C.3      67        0    0.0000
   1043 C         189.7238  205.9853  147.5901 C.3      67        0    0.0000
   1044 C         190.1522  205.5189  150.0872 C.3      67        0    0.0000
   1045 C         190.4742  206.4245  151.2827 C.3      67        0    0.0000
   1046 C         189.2638  206.7367  152.1815 C.3      67        0    0.0000
   1047 H         192.0563  207.5316  150.3207 H        67        0    0.0000
   1048 H         190.9480  208.5789  151.2076 H        67        0    0.0000
   1049 H         190.8275  208.1544  148.4757 H        67        0    0.0000
   1050 H         189.4076  208.5843  149.4279 H        67        0    0.0000
   1051 H         188.4575  206.5505  149.2448 H        67        0    0.0000
   1052 H         189.3004  204.9831  147.4560 H        67        0    0.0000
   1053 H         190.7959  205.9076  147.3731 H        67        0    0.0000
   1054 H         189.4844  204.6906  150.3432 H        67        0    0.0000
   1055 H         191.0848  205.0832  149.7055 H        67        0    0.0000
   1056 H         191.2709  205.9781  151.8914 H        67        0    0.0000
   1057 H         188.3217  206.6099  151.6375 H        67        0    0.0000
   1058 H         189.3068  207.7876  152.4925 H        67        0    0.0000
   1059 C         189.2458  205.8566  153.4633 C.3      68        0    0.0000
   1060 C         189.1998  206.6599  154.7710 C.3      68        0    0.0000
   1061 H         188.3399  205.2392  153.4110 H        68        0    0.0000
   1062 H         190.0971  205.1659  153.4492 H        68        0    0.0000
   1063 H         189.1119  207.7351  154.5757 H        68        0    0.0000
   1064 H         188.2960  206.3657  155.3196 H        68        0    0.0000
   1065 C         192.5742  204.1897  154.6026 C.3      69        0    0.0000
   1066 C         191.0440  204.1799  154.6548 C.3      69        0    0.0000
   1067 C         190.6466  204.8883  155.9544 C.3      69        0    0.0000
   1068 C         190.4153  206.3938  155.7252 C.3      69        0    0.0000
   1069 C         191.8298  204.5601  156.8739 C.3      69        0    0.0000
   1070 C         193.0597  204.6927  155.9723 C.3      69        0    0.0000
   1071 C         194.2749  203.9428  156.5298 C.3      69        0    0.0000
   1072 H         192.9429  203.1840  154.3713 H        69        0    0.0000
   1073 H         192.9284  204.8560  153.8077 H        69        0    0.0000
   1074 H         190.6983  203.1389  154.6894 H        69        0    0.0000
   1075 H         190.6016  204.6345  153.7625 H        69        0    0.0000
   1076 H         189.7261  204.4435  156.3539 H        69        0    0.0000
   1077 H         191.3121  206.8308  155.2697 H        69        0    0.0000
   1078 H         190.2580  206.9203  156.6725 H        69        0    0.0000
   1079 H         191.7331  203.5282  157.2361 H        69        0    0.0000
   1080 H         191.8958  205.2102  157.7515 H        69        0    0.0000
   1081 H         193.3092  205.7591  155.8808 H        69        0    0.0000
   1082 H         195.1785  204.2119  155.9707 H        69        0    0.0000
   1083 H         194.1289  202.8641  156.3981 H        69        0    0.0000
   1084 C         192.1393  207.1894  158.4760 C.3      70        0    0.0000
   1085 C         192.6944  206.0542  157.6270 C.3      70        0    0.0000
   1086 C         193.4871  205.2244  158.6422 C.3      70        0    0.0000
   1087 C         194.4921  204.2364  158.0421 C.3      70        0    0.0000
   1088 C         194.0732  206.2483  159.6339 C.3      70        0    0.0000
   1089 C         193.3324  207.5714  159.3581 C.3      70        0    0.0000
   1090 C         192.9939  208.4090  160.5950 C.3      70        0    0.0000
   1091 H         191.7959  208.0283  157.8628 H        70        0    0.0000
   1092 H         191.2894  206.8288  159.0658 H        70        0    0.0000
   1093 H         191.8987  205.4722  157.1519 H        70        0    0.0000
   1094 H         193.3354  206.4619  156.8376 H        70        0    0.0000
   1095 H         192.7557  204.6237  159.2036 H        70        0    0.0000
   1096 H         195.5066  204.6279  158.1827 H        70        0    0.0000
   1097 H         194.4396  203.2913  158.5954 H        70        0    0.0000
   1098 H         195.1505  206.3981  159.5042 H        70        0    0.0000
   1099 H         193.9328  205.8873  160.6584 H        70        0    0.0000
   1100 H         194.0031  208.1858  158.7387 H        70        0    0.0000
   1101 H         193.1536  209.4690  160.3643 H        70        0    0.0000
   1102 H         191.9282  208.2938  160.8253 H        70        0    0.0000
   1103 C         193.8224  208.0424  161.8629 C.3      71        0    0.0000
   1104 C         194.6765  209.1972  162.4054 C.3      71        0    0.0000
   1105 H         194.4970  207.2258  161.5754 H        71        0    0.0000
   1106 H         193.1565  207.6414  162.6360 H        71        0    0.0000
   1107 H         194.9844  209.8210  161.5565 H        71        0    0.0000
   1108 H         194.0956  209.8429  163.0744 H        71        0    0.0000
   1109 C         195.9896  208.7342  163.1266 C.3      72        0    0.0000
   1110 C         197.1740  209.6938  162.9426 C.3      72        0    0.0000
   1111 H         196.2656  207.7654  162.6909 H        72        0    0.0000
   1112 H         195.7840  208.5533  164.1882 H        72        0    0.0000
   1113 H         197.2493  209.9412  161.8760 H        72        0    0.0000
   1114 H         197.0075  210.6391  163.4726 H        72        0    0.0000
   1115 C         201.3306  211.6209  163.0250 C.3      73        0    0.0000
   1116 C         199.8422  211.2677  163.0837 C.3      73        0    0.0000
   1117 C         199.7340  209.7905  162.6835 C.3      73        0    0.0000
   1118 C         198.5569  209.0875  163.3653 C.3      73        0    0.0000
   1119 C         201.1119  209.2288  163.0493 C.3      73        0    0.0000
   1120 C         202.0598  210.3423  162.5918 C.3      73        0    0.0000
   1121 C         203.4744  210.2542  163.1713 C.3      73        0    0.0000
   1122 H         201.5205  212.4388  162.3217 H        73        0    0.0000
   1123 H         201.6650  211.9582  164.0134 H        73        0    0.0000
   1124 H         199.2538  211.9010  162.4110 H        73        0    0.0000
   1125 H         199.4667  211.4367  164.1001 H        73        0    0.0000
   1126 H         199.6129  209.7393  161.5916 H        73        0    0.0000
   1127 H         198.6605  209.1804  164.4530 H        73        0    0.0000
   1128 H         198.5703  208.0153  163.1370 H        73        0    0.0000
   1129 H         201.3163  208.2822  162.5389 H        73        0    0.0000
   1130 H         201.1940  209.0626  164.1307 H        73        0    0.0000
   1131 H         202.1092  210.3316  161.4932 H        73        0    0.0000
   1132 H         204.0763  209.5393  162.5983 H        73        0    0.0000
   1133 H         203.4218  209.8719  164.1978 H        73        0    0.0000
   1134 C         207.0667  211.5312  165.6762 C.3      74        0    0.0000
   1135 C         205.6968  211.0499  165.2189 C.3      74        0    0.0000
   1136 C         205.6005  211.5993  163.7918 C.3      74        0    0.0000
   1137 C         204.1908  211.6323  163.1937 C.3      74        0    0.0000
   1138 C         206.3393  212.9515  163.8268 C.3      74        0    0.0000
   1139 C         207.1121  212.9732  165.1601 C.3      74        0    0.0000
   1140 C         208.5049  213.6085  165.1058 C.3      74        0    0.0000
   1141 H         207.1758  211.4801  166.7640 H        74        0    0.0000
   1142 H         207.8471  210.9077  165.2264 H        74        0    0.0000
   1143 H         205.6169  209.9588  165.2458 H        74        0    0.0000
   1144 H         204.9217  211.4641  165.8731 H        74        0    0.0000
   1145 H         206.1958  210.9306  163.1518 H        74        0    0.0000
   1146 H         203.5765  212.3394  163.7638 H        74        0    0.0000
   1147 H         204.2452  212.0176  162.1687 H        74        0    0.0000
   1148 H         205.6595  213.8092  163.7838 H        74        0    0.0000
   1149 H         206.9950  213.0331  162.9532 H        74        0    0.0000
   1150 H         206.5185  213.5811  165.8595 H        74        0    0.0000
   1151 H         208.8935  213.7069  166.1264 H        74        0    0.0000
   1152 H         209.1859  212.9342  164.5731 H        74        0    0.0000
   1153 C         208.5448  215.0061  164.4180 C.3      75        0    0.0000
   1154 C         209.9463  215.6297  164.3531 C.3      75        0    0.0000
   1155 H         208.1877  214.8636  163.3900 H        75        0    0.0000
   1156 H         207.8310  215.6792  164.9073 H        75        0    0.0000
   1157 H         210.4234  215.6422  165.3401 H        75        0    0.0000
   1158 H         210.5713  214.9964  163.7105 H        75        0    0.0000
   1159 C         213.5565  216.7984  164.4896 C.3      76        0    0.0000
   1160 C         212.4675  216.6095  163.4346 C.3      76        0    0.0000
   1161 C         211.3879  217.6676  163.7208 C.3      76        0    0.0000
   1162 C         209.9747  217.0701  163.7343 C.3      76        0    0.0000
   1163 C         211.8102  218.3068  165.0527 C.3      76        0    0.0000
   1164 C         213.3400  218.1960  165.0755 C.3      76        0    0.0000
   1165 C         214.0630  219.2779  164.2525 C.3      76        0    0.0000
   1166 H         213.4180  216.0499  165.2803 H        76        0    0.0000
   1167 H         214.5594  216.6508  164.0769 H        76        0    0.0000
   1168 H         212.0797  215.5854  163.4651 H        76        0    0.0000
   1169 H         212.8805  216.7676  162.4313 H        76        0    0.0000
   1170 H         211.4464  218.4307  162.9318 H        76        0    0.0000
   1171 H         209.5627  217.0437  162.7189 H        76        0    0.0000
   1172 H         209.3147  217.7149  164.3270 H        76        0    0.0000
   1173 H         211.4525  219.3369  165.1451 H        76        0    0.0000
   1174 H         211.3965  217.7384  165.8959 H        76        0    0.0000
   1175 H         213.7057  218.2239  166.1098 H        76        0    0.0000
   1176 H         213.4066  219.6958  163.4818 H        76        0    0.0000
   1177 H         214.9128  218.8244  163.7280 H        76        0    0.0000
   1178 C         215.4397  223.3835  163.0669 C.3      77        0    0.0000
   1179 C         215.0510  221.9031  163.0802 C.3      77        0    0.0000
   1180 C         215.6026  221.3150  164.3913 C.3      77        0    0.0000
   1181 C         214.6085  220.4258  165.1485 C.3      77        0    0.0000
   1182 C         216.0306  222.5383  165.2083 C.3      77        0    0.0000
   1183 C         216.4973  223.5566  164.1625 C.3      77        0    0.0000
   1184 C         217.9302  223.2785  163.6702 C.3      77        0    0.0000
   1185 H         215.7726  223.7084  162.0765 H        77        0    0.0000
   1186 H         214.5563  223.9829  163.3218 H        77        0    0.0000
   1187 H         213.9639  221.8002  162.9916 H        77        0    0.0000
   1188 H         215.4962  221.3841  162.2233 H        77        0    0.0000
   1189 H         216.5031  220.7302  164.1552 H        77        0    0.0000
   1190 H         215.1078  219.9814  166.0177 H        77        0    0.0000
   1191 H         213.7747  221.0246  165.5327 H        77        0    0.0000
   1192 H         216.8083  222.2921  165.9386 H        77        0    0.0000
   1193 H         215.1747  222.9473  165.7607 H        77        0    0.0000
   1194 H         216.4462  224.5680  164.5854 H        77        0    0.0000
   1195 H         218.4880  224.2108  163.5288 H        77        0    0.0000
   1196 H         217.8894  222.7805  162.6942 H        77        0    0.0000
   1197 C         217.9795  221.5734  168.2862 C.3      78        0    0.0000
   1198 C         218.7577  221.2853  167.0115 C.3      78        0    0.0000
   1199 C         217.9344  221.9854  165.9229 C.3      78        0    0.0000
   1200 C         218.7094  222.3562  164.6521 C.3      78        0    0.0000
   1201 C         217.2206  223.1568  166.6284 C.3      78        0    0.0000
   1202 C         217.5819  223.0416  168.1206 C.3      78        0    0.0000
   1203 C         216.4637  223.4488  169.0833 C.3      78        0    0.0000
   1204 H         217.0947  220.9278  168.3450 H        78        0    0.0000
   1205 H         218.5851  221.4072  169.1823 H        78        0    0.0000
   1206 H         219.7675  221.7010  167.0973 H        78        0    0.0000
   1207 H         218.8528  220.2110  166.8248 H        78        0    0.0000
   1208 H         217.1486  221.2810  165.6117 H        78        0    0.0000
   1209 H         219.6424  222.8566  164.9377 H        78        0    0.0000
   1210 H         218.9942  221.4378  164.1253 H        78        0    0.0000
   1211 H         216.1387  223.0606  166.4735 H        78        0    0.0000
   1212 H         217.5111  224.1365  166.2348 H        78        0    0.0000
   1213 H         218.4705  223.6621  168.3073 H        78        0    0.0000
   1214 H         215.5607  222.8593  168.8852 H        78        0    0.0000
   1215 H         216.7694  223.2200  170.1112 H        78        0    0.0000
   1216 H         216.2215  224.5095  169.0182 H        78        0    0.0000
   1217 H         178.2142   58.1475  178.6168 H         0        0    0.0000
@<TRIPOS>BOND
     1     1     2      1
     2     1     6      1
     3     1     8      1
     4     1     9      1
     5     2     3      1
     6     2    10      1
     7     2    11      1
     8     3     4      1
     9     3     5      1
    10     3    12      1
    11     4    13      1
    12     4    14      1
    13     4  1217      H
    14     5     6      1
    15     5    15      1
    16     5    16      1
    17     6     7      1
    18     6    17      1
    19     7    18      1
    20     7    19      1
    21     7    23      1
    22    20    21      1
    23    20    25      1
    24    20    27      1
    25    20    28      1
    26    21    22      1
    27    21    29      1
    28    21    30      1
    29    22    23      1
    30    22    24      1
    31    22    31      1
    32    23    32      1
    33    23    33      1
    34    24    25      1
    35    24    34      1
    36    24    35      1
    37    25    26      1
    38    25    36      1
    39    26    37      1
    40    26    38      1
    41    26    39      1
    42    39    40      1
    43    39    41      1
    44    39    42      1
    45    40    43      1
    46    40    44      1
    47    40    48      1
    48    45    46      1
    49    45    50      1
    50    45    52      1
    51    45    53      1
    52    46    47      1
    53    46    54      1
    54    46    55      1
    55    47    48      1
    56    47    49      1
    57    47    56      1
    58    48    57      1
    59    48    58      1
    60    49    50      1
    61    49    59      1
    62    49    60      1
    63    50    51      1
    64    50    61      1
    65    51    62      1
    66    51    63      1
    67    51    64      1
    68    64    65      1
    69    64    66      1
    70    64    67      1
    71    65    68      1
    72    65    69      1
    73    65    73      1
    74    70    71      1
    75    70    75      1
    76    70    77      1
    77    70    78      1
    78    71    72      1
    79    71    79      1
    80    71    80      1
    81    72    73      1
    82    72    74      1
    83    72    81      1
    84    73    82      1
    85    73    83      1
    86    74    75      1
    87    74    84      1
    88    74    85      1
    89    75    76      1
    90    75    86      1
    91    76    87      1
    92    76    88      1
    93    76    92      1
    94    89    90      1
    95    89    94      1
    96    89    96      1
    97    89    97      1
    98    90    91      1
    99    90    98      1
   100    90    99      1
   101    91    92      1
   102    91    93      1
   103    91   100      1
   104    92   101      1
   105    92   102      1
   106    93    94      1
   107    93   103      1
   108    93   104      1
   109    94    95      1
   110    94   105      1
   111    95   106      1
   112    95   107      1
   113    95   108      1
   114   108   109      1
   115   108   110      1
   116   108   111      1
   117   109   112      1
   118   109   113      1
   119   109   114      1
   120   114   115      1
   121   114   116      1
   122   114   117      1
   123   115   118      1
   124   115   119      1
   125   115   120      1
   126   120   121      1
   127   120   122      1
   128   120   123      1
   129   121   124      1
   130   121   125      1
   131   121   126      1
   132   126   127      1
   133   126   128      1
   134   126   129      1
   135   127   130      1
   136   127   131      1
   137   127   135      1
   138   132   133      1
   139   132   137      1
   140   132   139      1
   141   132   140      1
   142   133   134      1
   143   133   141      1
   144   133   142      1
   145   134   135      1
   146   134   136      1
   147   134   143      1
   148   135   144      1
   149   135   145      1
   150   136   137      1
   151   136   146      1
   152   136   147      1
   153   137   138      1
   154   137   148      1
   155   138   149      1
   156   138   150      1
   157   138   154      1
   158   151   152      1
   159   151   156      1
   160   151   158      1
   161   151   159      1
   162   152   153      1
   163   152   160      1
   164   152   161      1
   165   153   154      1
   166   153   155      1
   167   153   162      1
   168   154   163      1
   169   154   164      1
   170   155   156      1
   171   155   165      1
   172   155   166      1
   173   156   157      1
   174   156   167      1
   175   157   168      1
   176   157   169      1
   177   157   170      1
   178   170   171      1
   179   170   172      1
   180   170   173      1
   181   171   174      1
   182   171   175      1
   183   171   179      1
   184   176   177      1
   185   176   181      1
   186   176   183      1
   187   176   184      1
   188   177   178      1
   189   177   185      1
   190   177   186      1
   191   178   179      1
   192   178   180      1
   193   178   187      1
   194   179   188      1
   195   179   189      1
   196   180   181      1
   197   180   190      1
   198   180   191      1
   199   181   182      1
   200   181   192      1
   201   182   193      1
   202   182   194      1
   203   182   195      1
   204   195   196      1
   205   195   197      1
   206   195   198      1
   207   196   199      1
   208   196   200      1
   209   196   204      1
   210   201   202      1
   211   201   206      1
   212   201   208      1
   213   201   209      1
   214   202   203      1
   215   202   210      1
   216   202   211      1
   217   203   204      1
   218   203   205      1
   219   203   212      1
   220   204   213      1
   221   204   214      1
   222   205   206      1
   223   205   215      1
   224   205   216      1
   225   206   207      1
   226   206   217      1
   227   207   218      1
   228   207   219      1
   229   207   223      1
   230   220   221      1
   231   220   225      1
   232   220   227      1
   233   220   228      1
   234   221   222      1
   235   221   229      1
   236   221   230      1
   237   222   223      1
   238   222   224      1
   239   222   231      1
   240   223   232      1
   241   223   233      1
   242   224   225      1
   243   224   234      1
   244   224   235      1
   245   225   226      1
   246   225   236      1
   247   226   237      1
   248   226   238      1
   249   226   242      1
   250   239   240      1
   251   239   244      1
   252   239   246      1
   253   239   247      1
   254   240   241      1
   255   240   248      1
   256   240   249      1
   257   241   242      1
   258   241   243      1
   259   241   250      1
   260   242   251      1
   261   242   252      1
   262   243   244      1
   263   243   253      1
   264   243   254      1
   265   244   245      1
   266   244   255      1
   267   245   256      1
   268   245   257      1
   269   245   261      1
   270   258   259      1
   271   258   263      1
   272   258   265      1
   273   258   266      1
   274   259   260      1
   275   259   267      1
   276   259   268      1
   277   260   261      1
   278   260   262      1
   279   260   269      1
   280   261   270      1
   281   261   271      1
   282   262   263      1
   283   262   272      1
   284   262   273      1
   285   263   264      1
   286   263   274      1
   287   264   275      1
   288   264   276      1
   289   264   277      1
   290   277   278      1
   291   277   279      1
   292   277   280      1
   293   278   281      1
   294   278   282      1
   295   278   286      1
   296   283   284      1
   297   283   288      1
   298   283   290      1
   299   283   291      1
   300   284   285      1
   301   284   292      1
   302   284   293      1
   303   285   286      1
   304   285   287      1
   305   285   294      1
   306   286   295      1
   307   286   296      1
   308   287   288      1
   309   287   297      1
   310   287   298      1
   311   288   289      1
   312   288   299      1
   313   289   300      1
   314   289   301      1
   315   289   305      1
   316   302   303      1
   317   302   307      1
   318   302   309      1
   319   302   310      1
   320   303   304      1
   321   303   311      1
   322   303   312      1
   323   304   305      1
   324   304   306      1
   325   304   313      1
   326   305   314      1
   327   305   315      1
   328   306   307      1
   329   306   316      1
   330   306   317      1
   331   307   308      1
   332   307   318      1
   333   308   319      1
   334   308   320      1
   335   308   324      1
   336   321   322      1
   337   321   326      1
   338   321   328      1
   339   321   329      1
   340   322   323      1
   341   322   330      1
   342   322   331      1
   343   323   324      1
   344   323   325      1
   345   323   332      1
   346   324   333      1
   347   324   334      1
   348   325   326      1
   349   325   335      1
   350   325   336      1
   351   326   327      1
   352   326   337      1
   353   327   338      1
   354   327   339      1
   355   327   343      1
   356   340   341      1
   357   340   345      1
   358   340   347      1
   359   340   348      1
   360   341   342      1
   361   341   349      1
   362   341   350      1
   363   342   343      1
   364   342   344      1
   365   342   351      1
   366   343   352      1
   367   343   353      1
   368   344   345      1
   369   344   354      1
   370   344   355      1
   371   345   346      1
   372   345   356      1
   373   346   357      1
   374   346   358      1
   375   346   362      1
   376   359   360      1
   377   359   364      1
   378   359   366      1
   379   359   367      1
   380   360   361      1
   381   360   368      1
   382   360   369      1
   383   361   362      1
   384   361   363      1
   385   361   370      1
   386   362   371      1
   387   362   372      1
   388   363   364      1
   389   363   373      1
   390   363   374      1
   391   364   365      1
   392   364   375      1
   393   365   376      1
   394   365   377      1
   395   365   381      1
   396   378   379      1
   397   378   383      1
   398   378   385      1
   399   378   386      1
   400   379   380      1
   401   379   387      1
   402   379   388      1
   403   380   381      1
   404   380   382      1
   405   380   389      1
   406   381   390      1
   407   381   391      1
   408   382   383      1
   409   382   392      1
   410   382   393      1
   411   383   384      1
   412   383   394      1
   413   384   395      1
   414   384   396      1
   415   384   397      1
   416   397   398      1
   417   397   399      1
   418   397   400      1
   419   398   401      1
   420   398   402      1
   421   398   406      1
   422   403   404      1
   423   403   408      1
   424   403   410      1
   425   403   411      1
   426   404   405      1
   427   404   412      1
   428   404   413      1
   429   405   406      1
   430   405   407      1
   431   405   414      1
   432   406   415      1
   433   406   416      1
   434   407   408      1
   435   407   417      1
   436   407   418      1
   437   408   409      1
   438   408   419      1
   439   409   420      1
   440   409   421      1
   441   409   425      1
   442   422   423      1
   443   422   427      1
   444   422   429      1
   445   422   430      1
   446   423   424      1
   447   423   431      1
   448   423   432      1
   449   424   425      1
   450   424   426      1
   451   424   433      1
   452   425   434      1
   453   425   435      1
   454   426   427      1
   455   426   436      1
   456   426   437      1
   457   427   428      1
   458   427   438      1
   459   428   439      1
   460   428   440      1
   461   428   444      1
   462   441   442      1
   463   441   446      1
   464   441   448      1
   465   441   449      1
   466   442   443      1
   467   442   450      1
   468   442   451      1
   469   443   444      1
   470   443   445      1
   471   443   452      1
   472   444   453      1
   473   444   454      1
   474   445   446      1
   475   445   455      1
   476   445   456      1
   477   446   447      1
   478   446   457      1
   479   447   458      1
   480   447   459      1
   481   447   463      1
   482   460   461      1
   483   460   465      1
   484   460   467      1
   485   460   468      1
   486   461   462      1
   487   461   469      1
   488   461   470      1
   489   462   463      1
   490   462   464      1
   491   462   471      1
   492   463   472      1
   493   463   473      1
   494   464   465      1
   495   464   474      1
   496   464   475      1
   497   465   466      1
   498   465   476      1
   499   466   477      1
   500   466   478      1
   501   466   479      1
   502   479   480      1
   503   479   481      1
   504   479   482      1
   505   480   483      1
   506   480   484      1
   507   480   488      1
   508   485   486      1
   509   485   490      1
   510   485   492      1
   511   485   493      1
   512   486   487      1
   513   486   494      1
   514   486   495      1
   515   487   488      1
   516   487   489      1
   517   487   496      1
   518   488   497      1
   519   488   498      1
   520   489   490      1
   521   489   499      1
   522   489   500      1
   523   490   491      1
   524   490   501      1
   525   491   502      1
   526   491   503      1
   527   491   507      1
   528   504   505      1
   529   504   509      1
   530   504   511      1
   531   504   512      1
   532   505   506      1
   533   505   513      1
   534   505   514      1
   535   506   507      1
   536   506   508      1
   537   506   515      1
   538   507   516      1
   539   507   517      1
   540   508   509      1
   541   508   518      1
   542   508   519      1
   543   509   510      1
   544   509   520      1
   545   510   521      1
   546   510   522      1
   547   510   526      1
   548   523   524      1
   549   523   528      1
   550   523   530      1
   551   523   531      1
   552   524   525      1
   553   524   532      1
   554   524   533      1
   555   525   526      1
   556   525   527      1
   557   525   534      1
   558   526   535      1
   559   526   536      1
   560   527   528      1
   561   527   537      1
   562   527   538      1
   563   528   529      1
   564   528   539      1
   565   529   540      1
   566   529   541      1
   567   529   545      1
   568   542   543      1
   569   542   547      1
   570   542   549      1
   571   542   550      1
   572   543   544      1
   573   543   551      1
   574   543   552      1
   575   544   545      1
   576   544   546      1
   577   544   553      1
   578   545   554      1
   579   545   555      1
   580   546   547      1
   581   546   556      1
   582   546   557      1
   583   547   548      1
   584   547   558      1
   585   548   559      1
   586   548   560      1
   587   548   564      1
   588   561   562      1
   589   561   566      1
   590   561   568      1
   591   561   569      1
   592   562   563      1
   593   562   570      1
   594   562   571      1
   595   563   564      1
   596   563   565      1
   597   563   572      1
   598   564   573      1
   599   564   574      1
   600   565   566      1
   601   565   575      1
   602   565   576      1
   603   566   567      1
   604   566   577      1
   605   567   578      1
   606   567   579      1
   607   567   583      1
   608   580   581      1
   609   580   585      1
   610   580   587      1
   611   580   588      1
   612   581   582      1
   613   581   589      1
   614   581   590      1
   615   582   583      1
   616   582   584      1
   617   582   591      1
   618   583   592      1
   619   583   593      1
   620   584   585      1
   621   584   594      1
   622   584   595      1
   623   585   586      1
   624   585   596      1
   625   586   597      1
   626   586   598      1
   627   586   602      1
   628   599   600      1
   629   599   604      1
   630   599   606      1
   631   599   607      1
   632   600   601      1
   633   600   608      1
   634   600   609      1
   635   601   602      1
   636   601   603      1
   637   601   610      1
   638   602   611      1
   639   602   612      1
   640   603   604      1
   641   603   613      1
   642   603   614      1
   643   604   605      1
   644   604   615      1
   645   605   616      1
   646   605   617      1
   647   605   621      1
   648   618   619      1
   649   618   623      1
   650   618   625      1
   651   618   626      1
   652   619   620      1
   653   619   627      1
   654   619   628      1
   655   620   621      1
   656   620   622      1
   657   620   629      1
   658   621   630      1
   659   621   631      1
   660   622   623      1
   661   622   632      1
   662   622   633      1
   663   623   624      1
   664   623   634      1
   665   624   635      1
   666   624   636      1
   667   624   640      1
   668   637   638      1
   669   637   642      1
   670   637   644      1
   671   637   645      1
   672   638   639      1
   673   638   646      1
   674   638   647      1
   675   639   640      1
   676   639   641      1
   677   639   648      1
   678   640   649      1
   679   640   650      1
   680   641   642      1
   681   641   651      1
   682   641   652      1
   683   642   643      1
   684   642   653      1
   685   643   654      1
   686   643   655      1
   687   643   659      1
   688   656   657      1
   689   656   661      1
   690   656   663      1
   691   656   664      1
   692   657   658      1
   693   657   665      1
   694   657   666      1
   695   658   659      1
   696   658   660      1
   697   658   667      1
   698   659   668      1
   699   659   669      1
   700   660   661      1
   701   660   670      1
   702   660   671      1
   703   661   662      1
   704   661   672      1
   705   662   673      1
   706   662   674      1
   707   662   675      1
   708   675   676      1
   709   675   677      1
   710   675   678      1
   711   676   679      1
   712   676   680      1
   713   676   684      1
   714   681   682      1
   715   681   686      1
   716   681   688      1
   717   681   689      1
   718   682   683      1
   719   682   690      1
   720   682   691      1
   721   683   684      1
   722   683   685      1
   723   683   692      1
   724   684   693      1
   725   684   694      1
   726   685   686      1
   727   685   695      1
   728   685   696      1
   729   686   687      1
   730   686   697      1
   731   687   698      1
   732   687   699      1
   733   687   703      1
   734   700   701      1
   735   700   705      1
   736   700   707      1
   737   700   708      1
   738   701   702      1
   739   701   709      1
   740   701   710      1
   741   702   703      1
   742   702   704      1
   743   702   711      1
   744   703   712      1
   745   703   713      1
   746   704   705      1
   747   704   714      1
   748   704   715      1
   749   705   706      1
   750   705   716      1
   751   706   717      1
   752   706   718      1
   753   706   722      1
   754   719   720      1
   755   719   724      1
   756   719   726      1
   757   719   727      1
   758   720   721      1
   759   720   728      1
   760   720   729      1
   761   721   722      1
   762   721   723      1
   763   721   730      1
   764   722   731      1
   765   722   732      1
   766   723   724      1
   767   723   733      1
   768   723   734      1
   769   724   725      1
   770   724   735      1
   771   725   736      1
   772   725   737      1
   773   725   741      1
   774   738   739      1
   775   738   743      1
   776   738   745      1
   777   738   746      1
   778   739   740      1
   779   739   747      1
   780   739   748      1
   781   740   741      1
   782   740   742      1
   783   740   749      1
   784   741   750      1
   785   741   751      1
   786   742   743      1
   787   742   752      1
   788   742   753      1
   789   743   744      1
   790   743   754      1
   791   744   755      1
   792   744   756      1
   793   744   760      1
   794   757   758      1
   795   757   762      1
   796   757   764      1
   797   757   765      1
   798   758   759      1
   799   758   766      1
   800   758   767      1
   801   759   760      1
   802   759   761      1
   803   759   768      1
   804   760   769      1
   805   760   770      1
   806   761   762      1
   807   761   771      1
   808   761   772      1
   809   762   763      1
   810   762   773      1
   811   763   774      1
   812   763   775      1
   813   763   779      1
   814   776   777      1
   815   776   781      1
   816   776   783      1
   817   776   784      1
   818   777   778      1
   819   777   785      1
   820   777   786      1
   821   778   779      1
   822   778   780      1
   823   778   787      1
   824   779   788      1
   825   779   789      1
   826   780   781      1
   827   780   790      1
   828   780   791      1
   829   781   782      1
   830   781   792      1
   831   782   793      1
   832   782   794      1
   833   782   795      1
   834   795   796      1
   835   795   797      1
   836   795   798      1
   837   796   799      1
   838   796   800      1
   839   796   804      1
   840   801   802      1
   841   801   806      1
   842   801   808      1
   843   801   809      1
   844   802   803      1
   845   802   810      1
   846   802   811      1
   847   803   804      1
   848   803   805      1
   849   803   812      1
   850   804   813      1
   851   804   814      1
   852   805   806      1
   853   805   815      1
   854   805   816      1
   855   806   807      1
   856   806   817      1
   857   807   818      1
   858   807   819      1
   859   807   823      1
   860   820   821      1
   861   820   825      1
   862   820   827      1
   863   820   828      1
   864   821   822      1
   865   821   829      1
   866   821   830      1
   867   822   823      1
   868   822   824      1
   869   822   831      1
   870   823   832      1
   871   823   833      1
   872   824   825      1
   873   824   834      1
   874   824   835      1
   875   825   826      1
   876   825   836      1
   877   826   837      1
   878   826   838      1
   879   826   839      1
   880   839   840      1
   881   839   841      1
   882   839   842      1
   883   840   843      1
   884   840   844      1
   885   840   848      1
   886   845   846      1
   887   845   850      1
   888   845   852      1
   889   845   853      1
   890   846   847      1
   891   846   854      1
   892   846   855      1
   893   847   848      1
   894   847   849      1
   895   847   856      1
   896   848   857      1
   897   848   858      1
   898   849   850      1
   899   849   859      1
   900   849   860      1
   901   850   851      1
   902   850   861      1
   903   851   862      1
   904   851   863      1
   905   851   867      1
   906   864   865      1
   907   864   869      1
   908   864   871      1
   909   864   872      1
   910   865   866      1
   911   865   873      1
   912   865   874      1
   913   866   867      1
   914   866   868      1
   915   866   875      1
   916   867   876      1
   917   867   877      1
   918   868   869      1
   919   868   878      1
   920   868   879      1
   921   869   870      1
   922   869   880      1
   923   870   881      1
   924   870   882      1
   925   870   883      1
   926   883   884      1
   927   883   885      1
   928   883   886      1
   929   884   887      1
   930   884   888      1
   931   884   892      1
   932   889   890      1
   933   889   894      1
   934   889   896      1
   935   889   897      1
   936   890   891      1
   937   890   898      1
   938   890   899      1
   939   891   892      1
   940   891   893      1
   941   891   900      1
   942   892   901      1
   943   892   902      1
   944   893   894      1
   945   893   903      1
   946   893   904      1
   947   894   895      1
   948   894   905      1
   949   895   906      1
   950   895   907      1
   951   895   908      1
   952   908   909      1
   953   908   910      1
   954   908   911      1
   955   909   912      1
   956   909   913      1
   957   909   917      1
   958   914   915      1
   959   914   919      1
   960   914   921      1
   961   914   922      1
   962   915   916      1
   963   915   923      1
   964   915   924      1
   965   916   917      1
   966   916   918      1
   967   916   925      1
   968   917   926      1
   969   917   927      1
   970   918   919      1
   971   918   928      1
   972   918   929      1
   973   919   920      1
   974   919   930      1
   975   920   931      1
   976   920   932      1
   977   920   936      1
   978   933   934      1
   979   933   938      1
   980   933   940      1
   981   933   941      1
   982   934   935      1
   983   934   942      1
   984   934   943      1
   985   935   936      1
   986   935   937      1
   987   935   944      1
   988   936   945      1
   989   936   946      1
   990   937   938      1
   991   937   947      1
   992   937   948      1
   993   938   939      1
   994   938   949      1
   995   939   950      1
   996   939   951      1
   997   939   955      1
   998   952   953      1
   999   952   957      1
  1000   952   959      1
  1001   952   960      1
  1002   953   954      1
  1003   953   961      1
  1004   953   962      1
  1005   954   955      1
  1006   954   956      1
  1007   954   963      1
  1008   955   964      1
  1009   955   965      1
  1010   956   957      1
  1011   956   966      1
  1012   956   967      1
  1013   957   958      1
  1014   957   968      1
  1015   958   969      1
  1016   958   970      1
  1017   958   971      1
  1018   971   972      1
  1019   971   973      1
  1020   971   974      1
  1021   972   975      1
  1022   972   976      1
  1023   972   980      1
  1024   977   978      1
  1025   977   982      1
  1026   977   984      1
  1027   977   985      1
  1028   978   979      1
  1029   978   986      1
  1030   978   987      1
  1031   979   980      1
  1032   979   981      1
  1033   979   988      1
  1034   980   989      1
  1035   980   990      1
  1036   981   982      1
  1037   981   991      1
  1038   981   992      1
  1039   982   983      1
  1040   982   993      1
  1041   983   994      1
  1042   983   995      1
  1043   983   999      1
  1044   996   997      1
  1045   996  1001      1
  1046   996  1003      1
  1047   996  1004      1
  1048   997   998      1
  1049   997  1005      1
  1050   997  1006      1
  1051   998   999      1
  1052   998  1000      1
  1053   998  1007      1
  1054   999  1008      1
  1055   999  1009      1
  1056  1000  1001      1
  1057  1000  1010      1
  1058  1000  1011      1
  1059  1001  1002      1
  1060  1001  1012      1
  1061  1002  1013      1
  1062  1002  1014      1
  1063  1002  1015      1
  1064  1015  1016      1
  1065  1015  1017      1
  1066  1015  1018      1
  1067  1016  1019      1
  1068  1016  1020      1
  1069  1016  1024      1
  1070  1021  1022      1
  1071  1021  1026      1
  1072  1021  1028      1
  1073  1021  1029      1
  1074  1022  1023      1
  1075  1022  1030      1
  1076  1022  1031      1
  1077  1023  1024      1
  1078  1023  1025      1
  1079  1023  1032      1
  1080  1024  1033      1
  1081  1024  1034      1
  1082  1025  1026      1
  1083  1025  1035      1
  1084  1025  1036      1
  1085  1026  1027      1
  1086  1026  1037      1
  1087  1027  1038      1
  1088  1027  1039      1
  1089  1027  1043      1
  1090  1040  1041      1
  1091  1040  1045      1
  1092  1040  1047      1
  1093  1040  1048      1
  1094  1041  1042      1
  1095  1041  1049      1
  1096  1041  1050      1
  1097  1042  1043      1
  1098  1042  1044      1
  1099  1042  1051      1
  1100  1043  1052      1
  1101  1043  1053      1
  1102  1044  1045      1
  1103  1044  1054      1
  1104  1044  1055      1
  1105  1045  1046      1
  1106  1045  1056      1
  1107  1046  1057      1
  1108  1046  1058      1
  1109  1046  1059      1
  1110  1059  1060      1
  1111  1059  1061      1
  1112  1059  1062      1
  1113  1060  1063      1
  1114  1060  1064      1
  1115  1060  1068      1
  1116  1065  1066      1
  1117  1065  1070      1
  1118  1065  1072      1
  1119  1065  1073      1
  1120  1066  1067      1
  1121  1066  1074      1
  1122  1066  1075      1
  1123  1067  1068      1
  1124  1067  1069      1
  1125  1067  1076      1
  1126  1068  1077      1
  1127  1068  1078      1
  1128  1069  1070      1
  1129  1069  1079      1
  1130  1069  1080      1
  1131  1070  1071      1
  1132  1070  1081      1
  1133  1071  1082      1
  1134  1071  1083      1
  1135  1071  1087      1
  1136  1084  1085      1
  1137  1084  1089      1
  1138  1084  1091      1
  1139  1084  1092      1
  1140  1085  1086      1
  1141  1085  1093      1
  1142  1085  1094      1
  1143  1086  1087      1
  1144  1086  1088      1
  1145  1086  1095      1
  1146  1087  1096      1
  1147  1087  1097      1
  1148  1088  1089      1
  1149  1088  1098      1
  1150  1088  1099      1
  1151  1089  1090      1
  1152  1089  1100      1
  1153  1090  1101      1
  1154  1090  1102      1
  1155  1090  1103      1
  1156  1103  1104      1
  1157  1103  1105      1
  1158  1103  1106      1
  1159  1104  1107      1
  1160  1104  1108      1
  1161  1104  1109      1
  1162  1109  1110      1
  1163  1109  1111      1
  1164  1109  1112      1
  1165  1110  1113      1
  1166  1110  1114      1
  1167  1110  1118      1
  1168  1115  1116      1
  1169  1115  1120      1
  1170  1115  1122      1
  1171  1115  1123      1
  1172  1116  1117      1
  1173  1116  1124      1
  1174  1116  1125      1
  1175  1117  1118      1
  1176  1117  1119      1
  1177  1117  1126      1
  1178  1118  1127      1
  1179  1118  1128      1
  1180  1119  1120      1
  1181  1119  1129      1
  1182  1119  1130      1
  1183  1120  1121      1
  1184  1120  1131      1
  1185  1121  1132      1
  1186  1121  1133      1
  1187  1121  1137      1
  1188  1134  1135      1
  1189  1134  1139      1
  1190  1134  1141      1
  1191  1134  1142      1
  1192  1135  1136      1
  1193  1135  1143      1
  1194  1135  1144      1
  1195  1136  1137      1
  1196  1136  1138      1
  1197  1136  1145      1
  1198  1137  1146      1
  1199  1137  1147      1
  1200  1138  1139      1
  1201  1138  1148      1
  1202  1138  1149      1
  1203  1139  1140      1
  1204  1139  1150      1
  1205  1140  1151      1
  1206  1140  1152      1
  1207  1140  1153      1
  1208  1153  1154      1
  1209  1153  1155      1
  1210  1153  1156      1
  1211  1154  1157      1
  1212  1154  1158      1
  1213  1154  1162      1
  1214  1159  1160      1
  1215  1159  1164      1
  1216  1159  1166      1
  1217  1159  1167      1
  1218  1160  1161      1
  1219  1160  1168      1
  1220  1160  1169      1
  1221  1161  1162      1
  1222  1161  1163      1
  1223  1161  1170      1
  1224  1162  1171      1
  1225  1162  1172      1
  1226  1163  1164      1
  1227  1163  1173      1
  1228  1163  1174      1
  1229  1164  1165      1
  1230  1164  1175      1
  1231  1165  1176      1
  1232  1165  1177      1
  1233  1165  1181      1
  1234  1178  1179      1
  1235  1178  1183      1
  1236  1178  1185      1
  1237  1178  1186      1
  1238  1179  1180      1
  1239  1179  1187      1
  1240  1179  1188      1
  1241  1180  1181      1
  1242  1180  1182      1
  1243  1180  1189      1
  1244  1181  1190      1
  1245  1181  1191      1
  1246  1182  1183      1
  1247  1182  1192      1
  1248  1182  1193      1
  1249  1183  1184      1
  1250  1183  1194      1
  1251  1184  1195      1
  1252  1184  1196      1
  1253  1184  1200      1
  1254  1197  1198      1
  1255  1197  1202      1
  1256  1197  1204      1
  1257  1197  1205      1
  1258  1198  1199      1
  1259  1198  1206      1
  1260  1198  1207      1
  1261  1199  1200      1
  1262  1199  1201      1
  1263  1199  1208      1
  1264  1200  1209      1
  1265  1200  1210      1
  1266  1201  1202      1
  1267  1201  1211      1
  1268  1201  1212      1
  1269  1202  1203      1
  1270  1202  1213      1
  1271  1203  1214      1
  1272  1203  1215      1
  1273  1203  1216      H
