###
### Created by PolyChef-cpp17 on Wed Feb 26 21:14:13 2025
###

@<TRIPOS>MOLECULE
NO_INFO
1242 1299 1 0 0
SMALL
USER_CHARGES


@<TRIPOS>ATOM
      1 C          96.6144  229.9340  122.8251 C.3       0        0    0.0000
      2 C          97.2567  231.2935  122.5874 C.3       0        0    0.0000
      3 C          98.7546  230.9713  122.6036 C.3       0        0    0.0000
      4 C          99.6840  232.1746  122.7892 C.3       0        0    0.0000
      5 C          98.9154  229.8415  123.6395 C.3       0        0    0.0000
      6 C          97.4902  229.3302  123.9278 C.3       0        0    0.0000
      7 C          97.3576  227.8161  124.1176 C.3       0        0    0.0000
      8 H          95.5684  230.0244  123.1340 H         0        0    0.0000
      9 H          96.6469  229.3431  121.9030 H         0        0    0.0000
     10 H          96.9411  231.7342  121.6367 H         0        0    0.0000
     11 H          96.9745  231.9818  123.3918 H         0        0    0.0000
     12 H          98.9979  230.5370  121.6222 H         0        0    0.0000
     13 H          99.8170  232.3623  123.8613 H         0        0    0.0000
     14 H         100.6739  231.9282  122.3874 H         0        0    0.0000
     15 H          99.3778  230.1818  124.5723 H         0        0    0.0000
     16 H          99.5726  229.0644  123.2346 H         0        0    0.0000
     17 H          97.1743  229.7928  124.8751 H         0        0    0.0000
     18 H          96.4425  227.6051  124.6836 H         0        0    0.0000
     19 H          97.2380  227.3410  123.1367 H         0        0    0.0000
     20 C          99.3934  227.8349  128.4030 C.3       1        0    0.0000
     21 C          98.3422  227.9464  127.2960 C.3       1        0    0.0000
     22 C          99.1119  228.0514  125.9671 C.3       1        0    0.0000
     23 C          98.5632  227.1546  124.8505 C.3       1        0    0.0000
     24 C         100.5583  227.7058  126.3352 C.3       1        0    0.0000
     25 C         100.7289  228.2318  127.7644 C.3       1        0    0.0000
     26 C         100.9920  229.7491  127.8046 C.3       1        0    0.0000
     27 H          99.1275  228.4341  129.2791 H         1        0    0.0000
     28 H          99.4492  226.7897  128.7331 H         1        0    0.0000
     29 H          97.6685  227.0832  127.3306 H         1        0    0.0000
     30 H          97.7280  228.8427  127.4420 H         1        0    0.0000
     31 H          99.0852  229.0990  125.6349 H         1        0    0.0000
     32 H          99.3547  226.9637  124.1161 H         1        0    0.0000
     33 H          98.2629  226.1808  125.2542 H         1        0    0.0000
     34 H         101.2757  228.1427  125.6329 H         1        0    0.0000
     35 H         100.7055  226.6181  126.3258 H         1        0    0.0000
     36 H         101.5574  227.7044  128.2541 H         1        0    0.0000
     37 H         100.5879  230.1968  128.7193 H         1        0    0.0000
     38 H         100.4805  230.2296  126.9620 H         1        0    0.0000
     39 C         102.5100  230.0751  127.6990 C.3       2        0    0.0000
     40 C         103.0071  230.2726  126.2598 C.3       2        0    0.0000
     41 H         102.6716  231.0124  128.2466 H         2        0    0.0000
     42 H         103.0905  229.3041  128.2192 H         2        0    0.0000
     43 H         102.3105  230.8876  125.6781 H         2        0    0.0000
     44 H         103.9549  230.8247  126.2997 H         2        0    0.0000
     45 C         100.9560  226.4040  124.1168 C.3       3        0    0.0000
     46 C         101.1984  227.8849  124.4184 C.3       3        0    0.0000
     47 C         102.1372  227.9380  125.6371 C.3       3        0    0.0000
     48 C         103.2949  228.9339  125.4958 C.3       3        0    0.0000
     49 C         102.6256  226.4958  125.8061 C.3       3        0    0.0000
     50 C         101.4454  225.6326  125.3474 C.3       3        0    0.0000
     51 C         100.3670  225.4845  126.4374 C.3       3        0    0.0000
     52 H          99.9113  226.2065  123.8586 H         3        0    0.0000
     53 H         101.5619  226.1167  123.2479 H         3        0    0.0000
     54 H         101.6166  228.3834  123.5370 H         3        0    0.0000
     55 H         100.2525  228.3858  124.6553 H         3        0    0.0000
     56 H         101.5396  228.2018  126.5214 H         3        0    0.0000
     57 H         104.2090  228.4886  125.9061 H         3        0    0.0000
     58 H         103.4913  229.1451  124.4383 H         3        0    0.0000
     59 H         102.9319  226.2845  126.8358 H         3        0    0.0000
     60 H         103.4908  226.3070  125.1574 H         3        0    0.0000
     61 H         101.8080  224.6389  125.0551 H         3        0    0.0000
     62 H          99.6747  224.6689  126.2011 H         3        0    0.0000
     63 H          99.7713  226.4037  126.4872 H         3        0    0.0000
     64 C         100.9939  225.2374  127.8402 C.3       4        0    0.0000
     65 C         100.6938  223.8484  128.4217 C.3       4        0    0.0000
     66 H         102.0812  225.3293  127.7220 H         4        0    0.0000
     67 H         100.6851  226.0331  128.5283 H         4        0    0.0000
     68 H          99.7775  223.8575  129.0236 H         4        0    0.0000
     69 H         100.5131  223.1610  127.5854 H         4        0    0.0000
     70 C         102.9223  223.5885  132.3515 C.3       5        0    0.0000
     71 C         102.1051  224.5128  131.4447 C.3       5        0    0.0000
     72 C         102.6516  224.3269  130.0249 C.3       5        0    0.0000
     73 C         101.8710  223.2410  129.2606 C.3       5        0    0.0000
     74 C         104.1231  223.9840  130.2895 C.3       5        0    0.0000
     75 C         104.0834  223.0482  131.5003 C.3       5        0    0.0000
     76 C         105.4294  222.9826  132.2309 C.3       5        0    0.0000
     77 H         103.2703  224.1446  133.2294 H         5        0    0.0000
     78 H         102.3034  222.7607  132.7161 H         5        0    0.0000
     79 H         102.2659  225.5511  131.7615 H         5        0    0.0000
     80 H         101.0309  224.3171  131.5230 H         5        0    0.0000
     81 H         102.5800  225.2724  129.4722 H         5        0    0.0000
     82 H         101.4490  222.5277  129.9789 H         5        0    0.0000
     83 H         102.5310  222.6669  128.6016 H         5        0    0.0000
     84 H         104.6714  224.9025  130.5365 H         5        0    0.0000
     85 H         104.6258  223.5227  129.4342 H         5        0    0.0000
     86 H         103.8170  222.0406  131.1512 H         5        0    0.0000
     87 H         105.2726  222.9132  133.3136 H         5        0    0.0000
     88 H         105.9878  223.9085  132.0492 H         5        0    0.0000
     89 C         104.9329  218.2939  132.2474 C.3       6        0    0.0000
     90 C         104.7186  219.7905  132.0069 C.3       6        0    0.0000
     91 C         105.9786  220.4950  132.5269 C.3       6        0    0.0000
     92 C         106.2897  221.7783  131.7517 C.3       6        0    0.0000
     93 C         107.0538  219.4085  132.4211 C.3       6        0    0.0000
     94 C         106.3134  218.1564  132.9028 C.3       6        0    0.0000
     95 C         106.9978  216.8338  132.5465 C.3       6        0    0.0000
     96 H         104.1501  217.8755  132.8892 H         6        0    0.0000
     97 H         104.8881  217.7602  131.2905 H         6        0    0.0000
     98 H         103.8237  220.1546  132.5229 H         6        0    0.0000
     99 H         104.5715  219.9706  130.9352 H         6        0    0.0000
    100 H         105.8240  220.7333  133.5894 H         6        0    0.0000
    101 H         106.0951  221.6131  130.6852 H         6        0    0.0000
    102 H         107.3528  222.0297  131.8436 H         6        0    0.0000
    103 H         107.9252  219.6334  133.0443 H         6        0    0.0000
    104 H         107.3923  219.2902  131.3841 H         6        0    0.0000
    105 H         106.1834  218.2233  133.9928 H         6        0    0.0000
    106 H         107.6874  216.9767  131.7064 H         6        0    0.0000
    107 H         106.2411  216.1125  132.2151 H         6        0    0.0000
    108 C         107.7679  216.2239  133.7497 C.3       7        0    0.0000
    109 C         107.5156  214.7236  133.9562 C.3       7        0    0.0000
    110 H         108.8371  216.3644  133.5456 H         7        0    0.0000
    111 H         107.5448  216.7948  134.6588 H         7        0    0.0000
    112 H         106.5619  214.4147  133.5123 H         7        0    0.0000
    113 H         108.3018  214.1701  133.4270 H         7        0    0.0000
    114 C         107.5725  214.2684  135.4556 C.3       8        0    0.0000
    115 C         107.9056  212.7814  135.6439 C.3       8        0    0.0000
    116 H         106.5770  214.4507  135.8801 H         8        0    0.0000
    117 H         108.2710  214.9068  136.0093 H         8        0    0.0000
    118 H         107.0296  212.1950  135.3384 H         8        0    0.0000
    119 H         108.7321  212.4723  134.9934 H         8        0    0.0000
    120 C         108.2226  212.3824  137.1268 C.3       9        0    0.0000
    121 C         108.6564  210.9198  137.3002 C.3       9        0    0.0000
    122 H         109.0492  213.0241  137.4578 H         9        0    0.0000
    123 H         107.3645  212.6223  137.7655 H         9        0    0.0000
    124 H         107.8944  210.2298  136.9190 H         9        0    0.0000
    125 H         109.5573  210.7578  136.6945 H         9        0    0.0000
    126 C         109.0270  210.5356  138.7745 C.3      10        0    0.0000
    127 C         109.5213  209.0911  138.9373 C.3      10        0    0.0000
    128 H         108.1134  210.6521  139.3714 H        10        0    0.0000
    129 H         109.7545  211.2533  139.1715 H        10        0    0.0000
    130 H         108.9934  208.6446  139.7897 H        10        0    0.0000
    131 H         109.2713  208.4827  138.0603 H        10        0    0.0000
    132 C         113.1896  205.8715  139.7596 C.3      11        0    0.0000
    133 C         112.4476  207.0754  140.3231 C.3      11        0    0.0000
    134 C         111.6113  207.5504  139.1303 C.3      11        0    0.0000
    135 C         111.0548  208.9731  139.2424 C.3      11        0    0.0000
    136 C         112.4814  207.2732  137.8887 C.3      11        0    0.0000
    137 C         113.6215  206.3553  138.3714 C.3      11        0    0.0000
    138 C         114.0422  205.2545  137.3930 C.3      11        0    0.0000
    139 H         114.0449  205.5905  140.3817 H        11        0    0.0000
    140 H         112.5123  205.0122  139.7042 H        11        0    0.0000
    141 H         111.8242  206.8064  141.1814 H        11        0    0.0000
    142 H         113.1675  207.8340  140.6498 H        11        0    0.0000
    143 H         110.7418  206.8792  139.0630 H        11        0    0.0000
    144 H         111.2429  209.3524  140.2539 H        11        0    0.0000
    145 H         111.6023  209.6274  138.5538 H        11        0    0.0000
    146 H         112.9048  208.1848  137.4534 H        11        0    0.0000
    147 H         111.8672  206.8140  137.1066 H        11        0    0.0000
    148 H         114.5034  206.9972  138.5175 H        11        0    0.0000
    149 H         113.1746  204.9603  136.7905 H        11        0    0.0000
    150 H         114.7866  205.6589  136.6969 H        11        0    0.0000
    151 C         117.9628  203.0187  136.5889 C.3      12        0    0.0000
    152 C         116.8333  204.0316  136.7938 C.3      12        0    0.0000
    153 C         115.5836  203.2164  137.1514 C.3      12        0    0.0000
    154 C         114.6326  203.9835  138.0743 C.3      12        0    0.0000
    155 C         116.1653  201.9346  137.7570 C.3      12        0    0.0000
    156 C         117.3486  201.6337  136.8311 C.3      12        0    0.0000
    157 C         118.3643  200.6374  137.3969 C.3      12        0    0.0000
    158 H         118.3861  203.0899  135.5811 H        12        0    0.0000
    159 H         118.7734  203.2276  137.2972 H        12        0    0.0000
    160 H         116.6660  204.6322  135.8933 H        12        0    0.0000
    161 H         117.1052  204.7235  137.5999 H        12        0    0.0000
    162 H         115.0639  202.9584  136.2171 H        12        0    0.0000
    163 H         115.1740  204.2914  138.9769 H        12        0    0.0000
    164 H         113.8143  203.3324  138.4033 H        12        0    0.0000
    165 H         115.4355  201.1189  137.7663 H        12        0    0.0000
    166 H         116.5053  202.1055  138.7861 H        12        0    0.0000
    167 H         116.9582  201.2598  135.8733 H        12        0    0.0000
    168 H         118.9419  201.1010  138.2052 H        12        0    0.0000
    169 H         119.0805  200.3656  136.6123 H        12        0    0.0000
    170 C         117.6903  199.3399  137.9214 C.3      13        0    0.0000
    171 C         118.6675  198.3452  138.5641 C.3      13        0    0.0000
    172 H         116.9647  199.6465  138.6858 H        13        0    0.0000
    173 H         117.1158  198.8699  137.1146 H        13        0    0.0000
    174 H         119.5039  198.1176  137.8929 H        13        0    0.0000
    175 H         119.0998  198.8196  139.4544 H        13        0    0.0000
    176 C         120.2275  194.3314  137.8979 C.3      14        0    0.0000
    177 C         120.1064  195.8128  138.2520 C.3      14        0    0.0000
    178 C         119.0293  195.9183  139.3454 C.3      14        0    0.0000
    179 C         117.9961  197.0115  139.0428 C.3      14        0    0.0000
    180 C         118.4344  194.5052  139.4460 C.3      14        0    0.0000
    181 C         119.5825  193.5656  139.0560 C.3      14        0    0.0000
    182 C         120.5876  193.2934  140.1900 C.3      14        0    0.0000
    183 H         119.6610  194.1391  136.9778 H        14        0    0.0000
    184 H         121.2643  194.0374  137.7065 H        14        0    0.0000
    185 H         119.8667  196.4006  137.3591 H        14        0    0.0000
    186 H         121.0608  196.1892  138.6386 H        14        0    0.0000
    187 H         119.5333  196.1546  140.2933 H        14        0    0.0000
    188 H         117.3776  197.2062  139.9266 H        14        0    0.0000
    189 H         117.3195  196.6617  138.2538 H        14        0    0.0000
    190 H         118.0306  194.2999  140.4422 H        14        0    0.0000
    191 H         117.6130  194.3858  138.7275 H        14        0    0.0000
    192 H         119.1825  192.6112  138.6905 H        14        0    0.0000
    193 H         120.9579  194.2276  140.6256 H        14        0    0.0000
    194 H         121.4608  192.7711  139.7805 H        14        0    0.0000
    195 C         119.9774  192.4041  141.3101 C.3      15        0    0.0000
    196 C         119.3057  193.1975  142.4400 C.3      15        0    0.0000
    197 H         119.2136  191.7755  140.8347 H        15        0    0.0000
    198 H         120.7438  191.7245  141.7009 H        15        0    0.0000
    199 H         119.3424  192.6493  143.3888 H        15        0    0.0000
    200 H         119.8748  194.1238  142.5907 H        15        0    0.0000
    201 C         115.5488  194.3363  139.3438 C.3      16        0    0.0000
    202 C         116.6220  194.8949  140.2769 C.3      16        0    0.0000
    203 C         117.5577  193.7240  140.6238 C.3      16        0    0.0000
    204 C         117.8276  193.6197  142.1306 C.3      16        0    0.0000
    205 C         116.8742  192.4860  140.0231 C.3      16        0    0.0000
    206 C         116.1016  193.0134  138.8074 C.3      16        0    0.0000
    207 C         116.9680  193.2242  137.5523 C.3      16        0    0.0000
    208 H         114.6401  194.1383  139.9266 H        16        0    0.0000
    209 H         115.2789  195.0460  138.5555 H        16        0    0.0000
    210 H         116.1609  195.3487  141.1610 H        16        0    0.0000
    211 H         117.1916  195.6831  139.7705 H        16        0    0.0000
    212 H         118.5102  193.8872  140.1000 H        16        0    0.0000
    213 H         117.1356  192.9063  142.5931 H        16        0    0.0000
    214 H         117.6398  194.5927  142.6003 H        16        0    0.0000
    215 H         117.5946  191.7028  139.7676 H        16        0    0.0000
    216 H         116.1635  192.0570  140.7415 H        16        0    0.0000
    217 H         115.2717  192.3375  138.5644 H        16        0    0.0000
    218 H         117.8340  193.8589  137.7692 H        16        0    0.0000
    219 H         116.3783  193.7486  136.7906 H        16        0    0.0000
    220 C         115.1348  189.6053  138.8669 C.3      17        0    0.0000
    221 C         115.8424  190.9508  138.6864 C.3      17        0    0.0000
    222 C         117.0746  190.6758  137.8144 C.3      17        0    0.0000
    223 C         117.4509  191.8774  136.9431 C.3      17        0    0.0000
    224 C         116.6745  189.4203  137.0323 C.3      17        0    0.0000
    225 C         115.9689  188.5733  138.0965 C.3      17        0    0.0000
    226 C         115.1133  187.4321  137.5396 C.3      17        0    0.0000
    227 H         115.0544  189.3342  139.9251 H        17        0    0.0000
    228 H         114.1146  189.6732  138.4705 H        17        0    0.0000
    229 H         116.1319  191.3832  139.6502 H        17        0    0.0000
    230 H         115.1596  191.6604  138.2040 H        17        0    0.0000
    231 H         117.9144  190.4230  138.4780 H        17        0    0.0000
    232 H         116.9981  191.7612  135.9512 H        17        0    0.0000
    233 H         118.5362  191.9132  136.7929 H        17        0    0.0000
    234 H         117.5444  188.9064  136.6112 H        17        0    0.0000
    235 H         115.9903  189.6700  136.2117 H        17        0    0.0000
    236 H         116.7277  188.1664  138.7808 H        17        0    0.0000
    237 H         114.3564  187.8254  136.8510 H        17        0    0.0000
    238 H         114.5720  186.9506  138.3628 H        17        0    0.0000
    239 C         117.4658  184.5080  139.6590 C.3      18        0    0.0000
    240 C         116.8749  185.8322  139.1687 C.3      18        0    0.0000
    241 C         117.1636  185.9107  137.6588 C.3      18        0    0.0000
    242 C         115.9649  186.3558  136.8120 C.3      18        0    0.0000
    243 C         117.6492  184.5054  137.2892 C.3      18        0    0.0000
    244 C         118.3858  184.0108  138.5387 C.3      18        0    0.0000
    245 C         119.8173  184.5714  138.6373 C.3      18        0    0.0000
    246 H         117.9667  184.6185  140.6255 H        18        0    0.0000
    247 H         116.6496  183.7879  139.8003 H        18        0    0.0000
    248 H         115.8049  185.8737  139.4002 H        18        0    0.0000
    249 H         117.3504  186.6757  139.6827 H        18        0    0.0000
    250 H         117.9962  186.6115  137.5028 H        18        0    0.0000
    251 H         116.3251  186.7779  135.8663 H        18        0    0.0000
    252 H         115.3358  185.4953  136.5567 H        18        0    0.0000
    253 H         118.2832  184.5122  136.3967 H        18        0    0.0000
    254 H         116.7948  183.8476  137.0840 H        18        0    0.0000
    255 H         118.4227  182.9140  138.5341 H        18        0    0.0000
    256 H         119.8404  185.4969  139.2232 H        18        0    0.0000
    257 H         120.1804  184.8208  137.6332 H        18        0    0.0000
    258 C         117.8396  182.2272  141.0780 C.3      19        0    0.0000
    259 C         118.8364  183.3794  140.9313 C.3      19        0    0.0000
    260 C         120.1492  182.7628  140.4160 C.3      19        0    0.0000
    261 C         120.7995  183.5402  139.2649 C.3      19        0    0.0000
    262 C         119.7681  181.3345  140.0134 C.3      19        0    0.0000
    263 C         118.6638  180.9375  140.9990 C.3      19        0    0.0000
    264 C         119.2255  180.4935  142.3629 C.3      19        0    0.0000
    265 H         117.2456  182.3163  141.9926 H        19        0    0.0000
    266 H         117.1378  182.2577  140.2346 H        19        0    0.0000
    267 H         118.4311  184.1422  140.2573 H        19        0    0.0000
    268 H         119.0073  183.8618  141.9008 H        19        0    0.0000
    269 H         120.8556  182.7035  141.2563 H        19        0    0.0000
    270 H         121.6768  184.0797  139.6411 H        19        0    0.0000
    271 H         121.1578  182.8510  138.4917 H        19        0    0.0000
    272 H         120.6277  180.6571  140.0424 H        19        0    0.0000
    273 H         119.3686  181.3195  138.9910 H        19        0    0.0000
    274 H         118.0622  180.1261  140.5701 H        19        0    0.0000
    275 H         118.6042  180.8633  143.1861 H        19        0    0.0000
    276 H         120.2255  180.9215  142.5014 H        19        0    0.0000
    277 C         119.3437  178.9449  142.4625 C.3      20        0    0.0000
    278 C         118.7651  178.3571  143.7575 C.3      20        0    0.0000
    279 H         118.7792  178.5292  141.6180 H        20        0    0.0000
    280 H         120.3882  178.6442  142.3197 H        20        0    0.0000
    281 H         119.5280  178.2932  144.5423 H        20        0    0.0000
    282 H         117.9917  179.0428  144.1269 H        20        0    0.0000
    283 C         120.0696  174.3921  145.2817 C.3      21        0    0.0000
    284 C         119.8032  175.8880  145.1204 C.3      21        0    0.0000
    285 C         118.3112  176.0355  144.7751 C.3      21        0    0.0000
    286 C         118.0795  176.9592  143.5721 C.3      21        0    0.0000
    287 C         117.8143  174.5969  144.5648 C.3      21        0    0.0000
    288 C         118.6996  173.7370  145.4758 C.3      21        0    0.0000
    289 C         118.2713  173.7378  146.9547 C.3      21        0    0.0000
    290 H         120.5245  174.0111  144.3584 H        21        0    0.0000
    291 H         120.7700  174.1843  146.0967 H        21        0    0.0000
    292 H         120.4620  176.3129  144.3552 H        21        0    0.0000
    293 H         120.0174  176.4143  146.0580 H        21        0    0.0000
    294 H         117.8022  176.4572  145.6534 H        21        0    0.0000
    295 H         117.0059  177.0950  143.3974 H        21        0    0.0000
    296 H         118.4899  176.4890  142.6703 H        21        0    0.0000
    297 H         116.7467  174.4955  144.7830 H        21        0    0.0000
    298 H         117.9673  174.2898  143.5220 H        21        0    0.0000
    299 H         118.7289  172.7033  145.1085 H        21        0    0.0000
    300 H         117.4737  173.0098  147.1378 H        21        0    0.0000
    301 H         117.8617  174.7223  147.2112 H        21        0    0.0000
    302 C         120.1033  174.7837  151.2685 C.3      22        0    0.0000
    303 C         119.3659  174.9858  149.9456 C.3      22        0    0.0000
    304 C         119.0722  173.5832  149.3857 C.3      22        0    0.0000
    305 C         119.4653  173.4508  147.9085 C.3      22        0    0.0000
    306 C         119.8227  172.6234  150.3218 C.3      22        0    0.0000
    307 C         119.8412  173.3331  151.6816 C.3      22        0    0.0000
    308 C         118.5337  173.1954  152.4827 C.3      22        0    0.0000
    309 H         121.1789  174.9225  151.0999 H        22        0    0.0000
    310 H         119.7981  175.5129  152.0255 H        22        0    0.0000
    311 H         119.9649  175.6001  149.2645 H        22        0    0.0000
    312 H         118.4230  175.5189  150.1151 H        22        0    0.0000
    313 H         117.9933  173.3991  149.4869 H        22        0    0.0000
    314 H         119.8647  172.4497  147.7089 H        22        0    0.0000
    315 H         120.2682  174.1627  147.6823 H        22        0    0.0000
    316 H         119.3532  171.6356  150.3590 H        22        0    0.0000
    317 H         120.8552  172.4836  149.9758 H        22        0    0.0000
    318 H         120.6778  172.9649  152.2890 H        22        0    0.0000
    319 H         117.7037  172.8856  151.8387 H        22        0    0.0000
    320 H         118.2601  174.1731  152.8977 H        22        0    0.0000
    321 C         121.8405  170.4158  152.8956 C.3      23        0    0.0000
    322 C         120.6661  171.2251  152.3400 C.3      23        0    0.0000
    323 C         119.4636  170.9431  153.2585 C.3      23        0    0.0000
    324 C         118.6755  172.1946  153.6644 C.3      23        0    0.0000
    325 C         120.0666  170.2166  154.4650 C.3      23        0    0.0000
    326 C         121.2374  169.4145  153.8868 C.3      23        0    0.0000
    327 C         120.7789  168.1037  153.2198 C.3      23        0    0.0000
    328 H         122.4270  169.9493  152.0984 H        23        0    0.0000
    329 H         122.5135  171.0947  153.4349 H        23        0    0.0000
    330 H         120.9296  172.2877  152.2981 H        23        0    0.0000
    331 H         120.4348  170.9082  151.3163 H        23        0    0.0000
    332 H         118.7906  170.2445  152.7409 H        23        0    0.0000
    333 H         117.6718  171.9008  153.9939 H        23        0    0.0000
    334 H         119.1566  172.6908  154.5151 H        23        0    0.0000
    335 H         119.3302  169.5867  154.9746 H        23        0    0.0000
    336 H         120.4459  170.9414  155.1969 H        23        0    0.0000
    337 H         121.9565  169.1866  154.6837 H        23        0    0.0000
    338 H         121.5522  167.7079  152.5521 H        23        0    0.0000
    339 H         119.8945  168.2998  152.6019 H        23        0    0.0000
    340 C         123.3671  164.6452  154.1298 C.3      24        0    0.0000
    341 C         122.6221  165.8634  153.6023 C.3      24        0    0.0000
    342 C         121.5677  166.1144  154.6853 C.3      24        0    0.0000
    343 C         120.4038  167.0205  154.2723 C.3      24        0    0.0000
    344 C         121.1715  164.7159  155.1978 C.3      24        0    0.0000
    345 C         122.2358  163.7487  154.6435 C.3      24        0    0.0000
    346 C         122.6660  162.6260  155.5926 C.3      24        0    0.0000
    347 H         123.9565  164.1562  153.3478 H        24        0    0.0000
    348 H         124.0499  164.9475  154.9315 H        24        0    0.0000
    349 H         123.2866  166.7226  153.4683 H        24        0    0.0000
    350 H         122.1693  165.6290  152.6326 H        24        0    0.0000
    351 H         122.0792  166.6223  155.5168 H        24        0    0.0000
    352 H         119.5944  166.4015  153.8675 H        24        0    0.0000
    353 H         120.0038  167.5188  155.1633 H        24        0    0.0000
    354 H         120.1790  164.4027  154.8563 H        24        0    0.0000
    355 H         121.1329  164.7246  156.2924 H        24        0    0.0000
    356 H         121.7911  163.2604  153.7633 H        24        0    0.0000
    357 H         123.0604  163.0685  156.5150 H        24        0    0.0000
    358 H         121.7844  162.0392  155.8766 H        24        0    0.0000
    359 C         123.2629  158.1207  156.2094 C.3      25        0    0.0000
    360 C         122.7199  159.4347  155.6688 C.3      25        0    0.0000
    361 C         123.9055  160.3882  155.8313 C.3      25        0    0.0000
    362 C         123.7388  161.6631  155.0008 C.3      25        0    0.0000
    363 C         125.1232  159.5262  155.4505 C.3      25        0    0.0000
    364 C         124.6857  158.0591  155.6394 C.3      25        0    0.0000
    365 C         125.6665  157.1751  156.4200 C.3      25        0    0.0000
    366 H         122.6574  157.2665  155.8907 H        25        0    0.0000
    367 H         123.2573  158.1452  157.3045 H        25        0    0.0000
    368 H         122.4418  159.3251  154.6135 H        25        0    0.0000
    369 H         121.8384  159.7724  156.2223 H        25        0    0.0000
    370 H         123.9916  160.6524  156.8954 H        25        0    0.0000
    371 H         124.6960  162.1924  154.9240 H        25        0    0.0000
    372 H         123.4452  161.3942  153.9792 H        25        0    0.0000
    373 H         125.4072  159.6818  154.4022 H        25        0    0.0000
    374 H         125.9933  159.7967  156.0579 H        25        0    0.0000
    375 H         124.6096  157.6225  154.6324 H        25        0    0.0000
    376 H         125.9332  157.6773  157.3575 H        25        0    0.0000
    377 H         126.5932  157.0759  155.8423 H        25        0    0.0000
    378 C         127.5910  153.2407  155.5625 C.3      26        0    0.0000
    379 C         127.1498  154.7060  155.5312 C.3      26        0    0.0000
    380 C         125.6242  154.7108  155.7357 C.3      26        0    0.0000
    381 C         125.1289  155.7522  156.7468 C.3      26        0    0.0000
    382 C         125.2917  153.2778  156.1638 C.3      26        0    0.0000
    383 C         126.3124  152.4073  155.4230 C.3      26        0    0.0000
    384 C         125.9130  152.1521  153.9572 C.3      26        0    0.0000
    385 H         128.3439  153.0255  154.7983 H        26        0    0.0000
    386 H         128.0522  153.0314  156.5362 H        26        0    0.0000
    387 H         127.6841  155.2749  156.3001 H        26        0    0.0000
    388 H         127.3969  155.1582  154.5636 H        26        0    0.0000
    389 H         125.1464  154.8960  154.7630 H        26        0    0.0000
    390 H         124.0329  155.7820  156.7300 H        26        0    0.0000
    391 H         125.4235  155.4688  157.7638 H        26        0    0.0000
    392 H         124.2560  153.0101  155.9310 H        26        0    0.0000
    393 H         125.4289  153.1611  157.2467 H        26        0    0.0000
    394 H         126.4241  151.4476  155.9435 H        26        0    0.0000
    395 H         125.6555  153.0877  153.4486 H        26        0    0.0000
    396 H         125.0191  151.5176  153.9288 H        26        0    0.0000
    397 C         127.0437  151.4311  153.1676 C.3      27        0    0.0000
    398 C         127.6756  152.2876  152.0610 C.3      27        0    0.0000
    399 H         127.8276  151.1811  153.8940 H        27        0    0.0000
    400 H         126.6690  150.4802  152.7711 H        27        0    0.0000
    401 H         127.1569  152.1501  151.1050 H        27        0    0.0000
    402 H         127.5529  153.3432  152.3355 H        27        0    0.0000
    403 C         130.1187  152.8922  155.4476 C.3      28        0    0.0000
    404 C         129.4507  153.2762  154.1361 C.3      28        0    0.0000
    405 C         130.0562  152.2947  153.1246 C.3      28        0    0.0000
    406 C         129.2128  152.0459  151.8677 C.3      28        0    0.0000
    407 C         130.4240  151.0346  153.9350 C.3      28        0    0.0000
    408 C         130.1038  151.3627  155.4048 C.3      28        0    0.0000
    409 C         131.0674  150.7475  156.4227 C.3      28        0    0.0000
    410 H         131.1451  153.2774  155.4781 H        28        0    0.0000
    411 H         129.5785  153.2872  156.3135 H        28        0    0.0000
    412 H         128.3659  153.1569  154.2291 H        28        0    0.0000
    413 H         129.6509  154.3176  153.8654 H        28        0    0.0000
    414 H         131.0042  152.7333  152.7794 H        28        0    0.0000
    415 H         129.5722  152.6987  151.0633 H        28        0    0.0000
    416 H         129.3698  151.0149  151.5292 H        28        0    0.0000
    417 H         131.4918  150.8223  153.7993 H        28        0    0.0000
    418 H         129.8797  150.1414  153.6108 H        28        0    0.0000
    419 H         129.0798  151.0223  155.6170 H        28        0    0.0000
    420 H         130.5288  150.4796  157.3394 H        28        0    0.0000
    421 H         131.4782  149.8160  156.0155 H        28        0    0.0000
    422 C         135.3217  150.3010  158.5182 C.3      29        0    0.0000
    423 C         134.6853  151.2731  157.5347 C.3      29        0    0.0000
    424 C         133.1914  151.1519  157.8526 C.3      29        0    0.0000
    425 C         132.2445  151.6980  156.7796 C.3      29        0    0.0000
    426 C         132.9772  149.6752  158.2385 C.3      29        0    0.0000
    427 C         134.3862  149.0892  158.4547 C.3      29        0    0.0000
    428 C         134.5177  148.0957  159.6131 C.3      29        0    0.0000
    429 H         136.3470  150.0444  158.2340 H        29        0    0.0000
    430 H         135.3478  150.7496  159.5174 H        29        0    0.0000
    431 H         135.0537  152.2944  157.6730 H        29        0    0.0000
    432 H         134.9148  150.9648  156.5087 H        29        0    0.0000
    433 H         133.0095  151.7455  158.7612 H        29        0    0.0000
    434 H         131.8331  152.6560  157.1192 H        29        0    0.0000
    435 H         132.8175  151.9066  155.8684 H        29        0    0.0000
    436 H         132.4581  149.1032  157.4620 H        29        0    0.0000
    437 H         132.3504  149.6184  159.1350 H        29        0    0.0000
    438 H         134.6424  148.5363  157.5383 H        29        0    0.0000
    439 H         133.5493  148.0063  160.1197 H        29        0    0.0000
    440 H         134.7548  147.1041  159.2097 H        29        0    0.0000
    441 C         135.4382  146.6585  163.9668 C.3      30        0    0.0000
    442 C         135.6086  147.9272  163.1452 C.3      30        0    0.0000
    443 C         135.8013  147.3923  161.7247 C.3      30        0    0.0000
    444 C         135.6001  148.4796  160.6663 C.3      30        0    0.0000
    445 C         134.8093  146.2180  161.6381 C.3      30        0    0.0000
    446 C         134.5309  145.7841  163.0920 C.3      30        0    0.0000
    447 C         134.6206  144.2760  163.3576 C.3      30        0    0.0000
    448 H         134.9905  146.8621  164.9446 H        30        0    0.0000
    449 H         136.4174  146.1978  164.1361 H        30        0    0.0000
    450 H         134.7077  148.5489  163.2153 H        30        0    0.0000
    451 H         136.4627  148.5222  163.4828 H        30        0    0.0000
    452 H         136.8205  146.9870  161.6447 H        30        0    0.0000
    453 H         135.3192  149.4255  161.1445 H        30        0    0.0000
    454 H         136.5487  148.6594  160.1466 H        30        0    0.0000
    455 H         133.8662  146.5288  161.1716 H        30        0    0.0000
    456 H         135.2178  145.4116  161.0200 H        30        0    0.0000
    457 H         133.4934  146.0761  163.3132 H        30        0    0.0000
    458 H         134.3504  143.7346  162.4432 H        30        0    0.0000
    459 H         133.8766  144.0034  164.1154 H        30        0    0.0000
    460 C         136.1452  140.0486  164.4177 C.3      31        0    0.0000
    461 C         135.5177  141.2496  163.7270 C.3      31        0    0.0000
    462 C         136.0059  142.4395  164.5629 C.3      31        0    0.0000
    463 C         136.0191  143.7899  163.8353 C.3      31        0    0.0000
    464 C         137.3557  141.9995  165.1663 C.3      31        0    0.0000
    465 C         137.5606  140.5360  164.7341 C.3      31        0    0.0000
    466 C         138.2564  139.6531  165.7730 C.3      31        0    0.0000
    467 H         135.5950  139.8081  165.3356 H        31        0    0.0000
    468 H         136.1465  139.1618  163.7766 H        31        0    0.0000
    469 H         135.8690  141.3009  162.6908 H        31        0    0.0000
    470 H         134.4252  141.1848  163.7071 H        31        0    0.0000
    471 H         135.3065  142.5487  165.4053 H        31        0    0.0000
    472 H         136.4455  144.5490  164.5020 H        31        0    0.0000
    473 H         136.6866  143.7230  162.9681 H        31        0    0.0000
    474 H         137.3037  142.0871  166.2587 H        31        0    0.0000
    475 H         138.1957  142.6207  164.8383 H        31        0    0.0000
    476 H         138.1426  140.5322  163.8009 H        31        0    0.0000
    477 H         139.1524  139.1933  165.3394 H        31        0    0.0000
    478 H         138.5957  140.2762  166.6090 H        31        0    0.0000
    479 C         137.3257  138.5381  166.3273 C.3      32        0    0.0000
    480 C         136.4588  138.9819  167.5142 C.3      32        0    0.0000
    481 H         136.6569  138.2470  165.5072 H        32        0    0.0000
    482 H         137.9199  137.6512  166.5769 H        32        0    0.0000
    483 H         137.0250  139.6158  168.2067 H        32        0    0.0000
    484 H         135.6380  139.5978  167.1249 H        32        0    0.0000
    485 C         134.2313  134.6100  167.3748 C.3      33        0    0.0000
    486 C         134.4090  136.0847  167.0168 C.3      33        0    0.0000
    487 C         135.8134  136.4891  167.4976 C.3      33        0    0.0000
    488 C         135.8009  137.7961  168.3013 C.3      33        0    0.0000
    489 C         136.3215  135.2731  168.2876 C.3      33        0    0.0000
    490 C         135.6382  134.0651  167.6342 C.3      33        0    0.0000
    491 C         136.3124  133.5850  166.3361 C.3      33        0    0.0000
    492 H         133.6402  134.5375  168.2967 H        33        0    0.0000
    493 H         133.6888  134.0606  166.5990 H        33        0    0.0000
    494 H         133.6135  136.6863  167.4699 H        33        0    0.0000
    495 H         134.3382  136.2223  165.9314 H        33        0    0.0000
    496 H         136.4485  136.6207  166.6102 H        33        0    0.0000
    497 H         136.3151  137.6588  169.2596 H        33        0    0.0000
    498 H         134.7643  138.0679  168.5343 H        33        0    0.0000
    499 H         137.4137  135.2055  168.2793 H        33        0    0.0000
    500 H         136.0044  135.3409  169.3365 H        33        0    0.0000
    501 H         135.5859  133.2302  168.3447 H        33        0    0.0000
    502 H         136.2613  134.3510  165.5548 H        33        0    0.0000
    503 H         135.7742  132.7098  165.9523 H        33        0    0.0000
    504 C         138.7124  134.6667  169.9070 C.3      34        0    0.0000
    505 C         137.6900  134.1364  168.9135 C.3      34        0    0.0000
    506 C         138.4903  134.0481  167.6124 C.3      34        0    0.0000
    507 C         137.7948  133.1751  166.5651 C.3      34        0    0.0000
    508 C         139.8696  133.5350  168.0652 C.3      34        0    0.0000
    509 C         139.9859  133.8838  169.5634 C.3      34        0    0.0000
    510 C         141.3003  134.5540  169.9830 C.3      34        0    0.0000
    511 H         138.3987  134.5029  170.9427 H        34        0    0.0000
    512 H         138.8385  135.7451  169.7619 H        34        0    0.0000
    513 H         137.3335  133.1476  169.2269 H        34        0    0.0000
    514 H         136.8245  134.7998  168.8228 H        34        0    0.0000
    515 H         138.6163  135.0662  167.2160 H        34        0    0.0000
    516 H         138.3346  133.2251  165.6121 H        34        0    0.0000
    517 H         137.8243  132.1279  166.8889 H        34        0    0.0000
    518 H         139.9474  132.4473  167.9450 H        34        0    0.0000
    519 H         140.6655  133.9786  167.4579 H        34        0    0.0000
    520 H         139.9352  132.9314  170.1119 H        34        0    0.0000
    521 H         141.2311  134.8501  171.0365 H        34        0    0.0000
    522 H         141.4292  135.4771  169.4053 H        34        0    0.0000
    523 C         144.0184  133.4260  173.2637 C.3      35        0    0.0000
    524 C         142.9731  133.9706  172.2868 C.3      35        0    0.0000
    525 C         143.6056  133.8918  170.8911 C.3      35        0    0.0000
    526 C         142.5637  133.6665  169.7919 C.3      35        0    0.0000
    527 C         144.6331  132.7645  171.0377 C.3      35        0    0.0000
    528 C         145.2391  133.0409  172.4176 C.3      35        0    0.0000
    529 C         146.0175  131.8675  173.0193 C.3      35        0    0.0000
    530 H         144.2848  134.1711  174.0211 H        35        0    0.0000
    531 H         143.6067  132.5581  173.7925 H        35        0    0.0000
    532 H         142.6929  135.0004  172.5334 H        35        0    0.0000
    533 H         142.0628  133.3624  172.3498 H        35        0    0.0000
    534 H         144.1422  134.8335  170.7045 H        35        0    0.0000
    535 H         142.2547  132.6144  169.7961 H        35        0    0.0000
    536 H         143.0021  133.8631  168.8064 H        35        0    0.0000
    537 H         145.3884  132.7942  170.2459 H        35        0    0.0000
    538 H         144.1450  131.7822  171.0125 H        35        0    0.0000
    539 H         145.8954  133.9202  172.3428 H        35        0    0.0000
    540 H         146.3858  132.1280  174.0184 H        35        0    0.0000
    541 H         146.8995  131.6631  172.4006 H        35        0    0.0000
    542 C         146.0710  128.3141  176.0226 C.3      36        0    0.0000
    543 C         145.0326  129.0875  175.2220 C.3      36        0    0.0000
    544 C         145.7925  129.4574  173.9440 C.3      36        0    0.0000
    545 C         145.1630  130.5731  173.1044 C.3      36        0    0.0000
    546 C         147.2462  129.7033  174.3930 C.3      36        0    0.0000
    547 C         147.3427  129.1461  175.8268 C.3      36        0    0.0000
    548 C         148.6541  128.4336  176.1715 C.3      36        0    0.0000
    549 H         145.7936  128.2292  177.0779 H        36        0    0.0000
    550 H         146.1738  127.3022  175.6154 H        36        0    0.0000
    551 H         144.1448  128.4830  175.0123 H        36        0    0.0000
    552 H         144.7163  129.9730  175.7843 H        36        0    0.0000
    553 H         145.8057  128.5584  173.3093 H        36        0    0.0000
    554 H         144.9861  130.2004  172.0885 H        36        0    0.0000
    555 H         144.1814  130.8260  173.5225 H        36        0    0.0000
    556 H         147.5179  130.7644  174.3936 H        36        0    0.0000
    557 H         147.9328  129.2092  173.6972 H        36        0    0.0000
    558 H         147.2675  130.0083  176.5065 H        36        0    0.0000
    559 H         149.0397  127.9387  175.2724 H        36        0    0.0000
    560 H         149.4013  129.1805  176.4650 H        36        0    0.0000
    561 C         147.2874  124.0499  176.2317 C.3      37        0    0.0000
    562 C         147.6418  125.4770  175.8065 C.3      37        0    0.0000
    563 C         147.4014  126.3744  177.0338 C.3      37        0    0.0000
    564 C         148.5287  127.3769  177.3098 C.3      37        0    0.0000
    565 C         147.1980  125.3918  178.1915 C.3      37        0    0.0000
    566 C         146.5183  124.1766  177.5513 C.3      37        0    0.0000
    567 C         145.0052  124.3868  177.3524 C.3      37        0    0.0000
    568 H         146.7382  123.5165  175.4500 H        37        0    0.0000
    569 H         148.2165  123.4931  176.4089 H        37        0    0.0000
    570 H         148.6762  125.5151  175.4475 H        37        0    0.0000
    571 H         146.9995  125.7990  174.9786 H        37        0    0.0000
    572 H         146.4603  126.9219  176.8816 H        37        0    0.0000
    573 H         148.3255  127.9017  178.2510 H        37        0    0.0000
    574 H         149.4835  126.8539  177.4374 H        37        0    0.0000
    575 H         146.6082  125.8304  179.0029 H        37        0    0.0000
    576 H         148.1664  125.0902  178.6112 H        37        0    0.0000
    577 H         146.6848  123.2901  178.1763 H        37        0    0.0000
    578 H         144.5458  123.5193  176.8658 H        37        0    0.0000
    579 H         144.8409  125.2466  176.6921 H        37        0    0.0000
    580 C         146.9089  123.4793  181.1553 C.3      38        0    0.0000
    581 C         145.6253  123.2235  180.3804 C.3      38        0    0.0000
    582 C         145.1918  124.6250  179.9322 C.3      38        0    0.0000
    583 C         144.2788  124.6656  178.7002 C.3      38        0    0.0000
    584 C         146.4919  125.4477  179.8200 C.3      38        0    0.0000
    585 C         147.6264  124.5218  180.2953 C.3      38        0    0.0000
    586 C         148.7499  125.2262  181.0598 C.3      38        0    0.0000
    587 H         146.6785  123.8781  182.1508 H        38        0    0.0000
    588 H         147.5008  122.5674  181.2800 H        38        0    0.0000
    589 H         145.8355  122.5647  179.5310 H        38        0    0.0000
    590 H         144.8640  122.7387  180.9996 H        38        0    0.0000
    591 H         144.6142  125.0626  180.7600 H        38        0    0.0000
    592 H         143.4780  123.9273  178.8264 H        38        0    0.0000
    593 H         143.7946  125.6478  178.6454 H        38        0    0.0000
    594 H         146.4091  126.3348  180.4603 H        38        0    0.0000
    595 H         146.6863  125.8073  178.8041 H        38        0    0.0000
    596 H         148.0452  124.0126  179.4150 H        38        0    0.0000
    597 H         148.9693  126.1972  180.6000 H        38        0    0.0000
    598 H         148.4177  125.4313  182.0844 H        38        0    0.0000
    599 C         149.7124  120.6486  181.7484 C.3      39        0    0.0000
    600 C         149.4296  122.0892  182.1509 C.3      39        0    0.0000
    601 C         149.8395  122.8793  180.9037 C.3      39        0    0.0000
    602 C         150.0532  124.3809  181.1175 C.3      39        0    0.0000
    603 C         151.0412  122.1142  180.3156 C.3      39        0    0.0000
    604 C         151.0652  120.7521  181.0364 C.3      39        0    0.0000
    605 C         151.4431  119.5504  180.1649 C.3      39        0    0.0000
    606 H         149.7541  119.9825  182.6157 H        39        0    0.0000
    607 H         148.9217  120.2889  181.0808 H        39        0    0.0000
    608 H         148.3768  122.2429  182.4074 H        39        0    0.0000
    609 H         150.0349  122.3550  183.0246 H        39        0    0.0000
    610 H         149.0171  122.7808  180.1792 H        39        0    0.0000
    611 H         150.5330  124.5393  182.0906 H        39        0    0.0000
    612 H         150.7498  124.7554  180.3581 H        39        0    0.0000
    613 H         151.9941  122.6300  180.4760 H        39        0    0.0000
    614 H         150.9199  122.0199  179.2311 H        39        0    0.0000
    615 H         151.8338  120.8232  181.8208 H        39        0    0.0000
    616 H         151.3109  119.8177  179.1098 H        39        0    0.0000
    617 H         152.5080  119.3285  180.3027 H        39        0    0.0000
    618 C         148.9701  119.5369  183.5304 C.3      40        0    0.0000
    619 C         150.2528  119.4960  182.6962 C.3      40        0    0.0000
    620 C         150.2465  118.1527  181.9448 C.3      40        0    0.0000
    621 C         150.6206  118.2605  180.4614 C.3      40        0    0.0000
    622 C         148.8301  117.6063  182.1510 C.3      40        0    0.0000
    623 C         148.4228  118.1054  183.5415 C.3      40        0    0.0000
    624 C         149.0120  117.2407  184.6720 C.3      40        0    0.0000
    625 H         149.1460  119.9501  184.5281 H        40        0    0.0000
    626 H         148.2461  120.1949  183.0329 H        40        0    0.0000
    627 H         150.2901  120.3599  182.0235 H        40        0    0.0000
    628 H         151.1331  119.5541  183.3470 H        40        0    0.0000
    629 H         150.9506  117.4735  182.4464 H        40        0    0.0000
    630 H         151.2228  117.3902  180.1745 H        40        0    0.0000
    631 H         149.7198  118.2433  179.8371 H        40        0    0.0000
    632 H         148.7945  116.5155  182.0635 H        40        0    0.0000
    633 H         148.1471  118.0217  181.3987 H        40        0    0.0000
    634 H         147.3284  118.1162  183.6225 H        40        0    0.0000
    635 H         148.8758  117.7192  185.6482 H        40        0    0.0000
    636 H         150.0922  117.1294  184.5197 H        40        0    0.0000
    637 C         144.8880  115.3696  185.8800 C.3      41        0    0.0000
    638 C         145.9832  116.3655  185.4908 C.3      41        0    0.0000
    639 C         147.3278  115.6887  185.8121 C.3      41        0    0.0000
    640 C         148.3784  115.8196  184.7024 C.3      41        0    0.0000
    641 C         146.9617  114.2291  186.0996 C.3      41        0    0.0000
    642 C         145.5705  114.2990  186.7384 C.3      41        0    0.0000
    643 C         145.6281  114.6674  188.2330 C.3      41        0    0.0000
    644 H         144.0465  115.8628  186.3758 H        41        0    0.0000
    645 H         144.4949  114.9026  184.9679 H        41        0    0.0000
    646 H         145.8850  116.6366  184.4339 H        41        0    0.0000
    647 H         145.8832  117.2892  186.0727 H        41        0    0.0000
    648 H         147.7236  116.1301  186.7380 H        41        0    0.0000
    649 H         149.1763  115.0863  184.8694 H        41        0    0.0000
    650 H         147.9352  115.5901  183.7265 H        41        0    0.0000
    651 H         147.7007  113.7399  186.7425 H        41        0    0.0000
    652 H         146.9064  113.6577  185.1640 H        41        0    0.0000
    653 H         145.0621  113.3337  186.6195 H        41        0    0.0000
    654 H         144.6757  115.0883  188.5739 H        41        0    0.0000
    655 H         146.3913  115.4392  188.3885 H        41        0    0.0000
    656 C         146.9093  111.9213  185.9027 C.3      42        0    0.0000
    657 C         147.3315  112.8787  187.0162 C.3      42        0    0.0000
    658 C         146.7101  112.3429  188.3176 C.3      42        0    0.0000
    659 C         145.9940  113.4398  189.1167 C.3      42        0    0.0000
    660 C         145.7927  111.1949  187.8693 C.3      42        0    0.0000
    661 C         146.4497  110.6382  186.5998 C.3      42        0    0.0000
    662 C         147.6257  109.6809  186.8661 C.3      42        0    0.0000
    663 H         146.0627  112.3603  185.3594 H        42        0    0.0000
    664 H         147.7103  111.7575  185.1750 H        42        0    0.0000
    665 H         147.0147  113.9008  186.7815 H        42        0    0.0000
    666 H         148.4238  112.8935  187.1092 H        42        0    0.0000
    667 H         147.5208  111.9247  188.9309 H        42        0    0.0000
    668 H         146.6152  113.7639  189.9597 H        42        0    0.0000
    669 H         145.0696  113.0320  189.5432 H        42        0    0.0000
    670 H         145.6652  110.4415  188.6528 H        42        0    0.0000
    671 H         144.7957  111.5798  187.6182 H        42        0    0.0000
    672 H         145.7017  110.1282  185.9794 H        42        0    0.0000
    673 H         148.0591  109.8500  187.8577 H        42        0    0.0000
    674 H         148.4226  109.8772  186.1385 H        42        0    0.0000
    675 C         147.2072  108.1896  186.7296 C.3      43        0    0.0000
    676 C         146.9565  107.4867  188.0714 C.3      43        0    0.0000
    677 H         146.2709  108.1745  186.1572 H        43        0    0.0000
    678 H         147.9500  107.6508  186.1297 H        43        0    0.0000
    679 H         146.8513  106.4033  187.9407 H        43        0    0.0000
    680 H         147.8377  107.6420  188.7070 H        43        0    0.0000
    681 C         145.0746  111.6563  189.8557 C.3      44        0    0.0000
    682 C         145.6661  110.2869  190.1596 C.3      44        0    0.0000
    683 C         145.5789  109.5695  188.8086 C.3      44        0    0.0000
    684 C         145.7236  108.0456  188.8628 C.3      44        0    0.0000
    685 C         144.2842  110.0912  188.1550 C.3      44        0    0.0000
    686 C         143.8596  111.3182  188.9854 C.3      44        0    0.0000
    687 C         143.2780  112.4878  188.1855 C.3      44        0    0.0000
    688 H         144.7912  112.1908  190.7677 H        44        0    0.0000
    689 H         145.8095  112.2659  189.3185 H        44        0    0.0000
    690 H         146.6965  110.3579  190.5217 H        44        0    0.0000
    691 H         145.0682  109.7884  190.9304 H        44        0    0.0000
    692 H         146.4140  109.9410  188.1957 H        44        0    0.0000
    693 H         145.8050  107.7308  189.9100 H        44        0    0.0000
    694 H         144.8116  107.5846  188.4653 H        44        0    0.0000
    695 H         143.4774  109.3503  188.1579 H        44        0    0.0000
    696 H         144.4767  110.3340  187.1044 H        44        0    0.0000
    697 H         143.0642  110.9790  189.6662 H        44        0    0.0000
    698 H         142.4418  112.9235  188.7452 H        44        0    0.0000
    699 H         144.0383  113.2723  188.0935 H        44        0    0.0000
    700 C         143.8416  115.2806  185.0255 C.3      45        0    0.0000
    701 C         143.4854  114.5064  186.2973 C.3      45        0    0.0000
    702 C         142.6125  113.3257  185.8525 C.3      45        0    0.0000
    703 C         142.7800  112.1037  186.7598 C.3      45        0    0.0000
    704 C         143.0408  113.1045  184.3980 C.3      45        0    0.0000
    705 C         143.1689  114.5354  183.8651 C.3      45        0    0.0000
    706 C         143.9565  114.6614  182.5581 C.3      45        0    0.0000
    707 H         143.4957  116.3185  185.0787 H        45        0    0.0000
    708 H         144.9315  115.3070  184.9073 H        45        0    0.0000
    709 H         142.9534  115.1396  187.0155 H        45        0    0.0000
    710 H         144.4055  114.1637  186.7857 H        45        0    0.0000
    711 H         141.5625  113.6527  185.8631 H        45        0    0.0000
    712 H         143.5062  111.4159  186.3103 H        45        0    0.0000
    713 H         141.8334  111.5563  186.8391 H        45        0    0.0000
    714 H         142.3009  112.5241  183.8376 H        45        0    0.0000
    715 H         144.0025  112.5787  184.3472 H        45        0    0.0000
    716 H         142.1597  114.9511  183.7302 H        45        0    0.0000
    717 H         144.0641  115.7161  182.2791 H        45        0    0.0000
    718 H         143.3963  114.1762  181.7498 H        45        0    0.0000
    719 C         147.8321  116.1496  180.7392 C.3      46        0    0.0000
    720 C         146.4607  115.9746  181.3735 C.3      46        0    0.0000
    721 C         146.3434  114.4566  181.5607 C.3      46        0    0.0000
    722 C         145.3612  114.0047  182.6489 C.3      46        0    0.0000
    723 C         147.7892  113.9429  181.7192 C.3      46        0    0.0000
    724 C         148.7019  115.1680  181.5271 C.3      46        0    0.0000
    725 C         150.0270  114.8744  180.8194 C.3      46        0    0.0000
    726 H         147.7958  115.8813  179.6763 H        46        0    0.0000
    727 H         148.1927  117.1796  180.8206 H        46        0    0.0000
    728 H         146.4272  116.5123  182.3272 H        46        0    0.0000
    729 H         145.6629  116.3710  180.7377 H        46        0    0.0000
    730 H         145.9662  114.0444  180.6128 H        46        0    0.0000
    731 H         145.2439  112.9159  182.5922 H        46        0    0.0000
    732 H         145.7919  114.2232  183.6332 H        46        0    0.0000
    733 H         147.9827  113.1802  180.9547 H        46        0    0.0000
    734 H         147.9737  113.4719  182.6905 H        46        0    0.0000
    735 H         148.9035  115.6040  182.5165 H        46        0    0.0000
    736 H         149.9460  113.9517  180.2325 H        46        0    0.0000
    737 H         150.2447  115.6808  180.1090 H        46        0    0.0000
    738 C         154.2626  116.5438  180.4160 C.3      47        0    0.0000
    739 C         153.1734  116.4115  181.4712 C.3      47        0    0.0000
    740 C         152.5887  115.0241  181.1866 C.3      47        0    0.0000
    741 C         151.2175  114.7478  181.8109 C.3      47        0    0.0000
    742 C         152.6682  114.8562  179.6566 C.3      47        0    0.0000
    743 C         153.5888  115.9872  179.1575 C.3      47        0    0.0000
    744 C         154.5376  115.6108  178.0155 C.3      47        0    0.0000
    745 H         154.5821  117.5825  180.2862 H        47        0    0.0000
    746 H         155.1370  115.9532  180.7108 H        47        0    0.0000
    747 H         153.5758  116.4879  182.4860 H        47        0    0.0000
    748 H         152.4313  117.2065  181.3387 H        47        0    0.0000
    749 H         153.2836  114.2899  181.6215 H        47        0    0.0000
    750 H         151.2151  113.7376  182.2370 H        47        0    0.0000
    751 H         151.0568  115.4417  182.6445 H        47        0    0.0000
    752 H         151.6912  114.9371  179.1681 H        47        0    0.0000
    753 H         153.0515  113.8585  179.4173 H        47        0    0.0000
    754 H         152.9324  116.7808  178.7697 H        47        0    0.0000
    755 H         155.1979  114.8021  178.3504 H        47        0    0.0000
    756 H         153.9512  115.2127  177.1789 H        47        0    0.0000
    757 C         158.1019  116.1130  174.9136 C.3      48        0    0.0000
    758 C         157.5474  116.9759  176.0368 C.3      48        0    0.0000
    759 C         156.0825  116.5327  176.1397 C.3      48        0    0.0000
    760 C         155.4139  116.7900  177.4960 C.3      48        0    0.0000
    761 C         156.0547  115.0685  175.6551 C.3      48        0    0.0000
    762 C         157.4890  114.7409  175.2011 C.3      48        0    0.0000
    763 C         157.5802  113.8037  173.9943 C.3      48        0    0.0000
    764 H         157.7721  116.4979  173.9409 H        48        0    0.0000
    765 H         159.1958  116.0870  174.9189 H        48        0    0.0000
    766 H         158.1045  116.7786  176.9591 H        48        0    0.0000
    767 H         157.6369  118.0437  175.8139 H        48        0    0.0000
    768 H         155.5171  117.1187  175.3998 H        48        0    0.0000
    769 H         156.1901  117.0045  178.2403 H        48        0    0.0000
    770 H         154.7911  117.6894  177.4236 H        48        0    0.0000
    771 H         155.3454  114.9816  174.8226 H        48        0    0.0000
    772 H         155.7240  114.3665  176.4277 H        48        0    0.0000
    773 H         158.0249  114.2959  176.0522 H        48        0    0.0000
    774 H         158.0569  112.8596  174.2838 H        48        0    0.0000
    775 H         156.5687  113.5536  173.6526 H        48        0    0.0000
    776 C         158.1957  113.1125  169.8079 C.3      49        0    0.0000
    777 C         158.2789  112.4737  171.1968 C.3      49        0    0.0000
    778 C         159.1846  113.3780  172.0400 C.3      49        0    0.0000
    779 C         158.3661  114.4320  172.8094 C.3      49        0    0.0000
    780 C         160.1333  113.9578  170.9832 C.3      49        0    0.0000
    781 C         159.2307  114.2494  169.7817 C.3      49        0    0.0000
    782 C         160.0204  114.3593  168.4724 C.3      49        0    0.0000
    783 H         158.3871  112.3545  169.0399 H        49        0    0.0000
    784 H         157.1910  113.5114  169.6267 H        49        0    0.0000
    785 H         158.7422  111.4834  171.1031 H        49        0    0.0000
    786 H         157.2882  112.3232  171.6376 H        49        0    0.0000
    787 H         159.7496  112.7715  172.7594 H        49        0    0.0000
    788 H         157.6448  114.8969  172.1264 H        49        0    0.0000
    789 H         159.0070  115.2379  173.1825 H        49        0    0.0000
    790 H         160.8867  113.2043  170.7189 H        49        0    0.0000
    791 H         160.6678  114.8518  171.3179 H        49        0    0.0000
    792 H         158.7071  115.1985  169.9637 H        49        0    0.0000
    793 H         159.4046  114.8241  167.6936 H        49        0    0.0000
    794 H         160.2776  113.3544  168.1170 H        49        0    0.0000
    795 C         161.3321  115.1756  168.6546 C.3      50        0    0.0000
    796 C         161.8634  115.8006  167.3567 C.3      50        0    0.0000
    797 H         161.1044  115.9887  169.3557 H        50        0    0.0000
    798 H         162.0926  114.5500  169.1365 H        50        0    0.0000
    799 H         162.5553  115.1236  166.8421 H        50        0    0.0000
    800 H         161.0131  115.9541  166.6798 H        50        0    0.0000
    801 C         164.7863  119.0056  165.0937 C.3      51        0    0.0000
    802 C         164.0739  118.9666  166.4370 C.3      51        0    0.0000
    803 C         163.0305  117.8567  166.2573 C.3      51        0    0.0000
    804 C         162.5426  117.1999  167.5548 C.3      51        0    0.0000
    805 C         163.6238  116.8922  165.2097 C.3      51        0    0.0000
    806 C         164.9505  117.5238  164.7497 C.3      51        0    0.0000
    807 C         165.2836  117.3079  163.2714 C.3      51        0    0.0000
    808 H         164.1653  119.5184  164.3491 H        51        0    0.0000
    809 H         165.7475  119.5252  165.1547 H        51        0    0.0000
    810 H         164.7950  118.7318  167.2272 H        51        0    0.0000
    811 H         163.6104  119.9276  166.6816 H        51        0    0.0000
    812 H         162.1466  118.3188  165.7929 H        51        0    0.0000
    813 H         163.3936  117.0834  168.2365 H        51        0    0.0000
    814 H         161.8323  117.8717  168.0513 H        51        0    0.0000
    815 H         162.9194  116.7958  164.3741 H        51        0    0.0000
    816 H         163.7912  115.8832  165.6010 H        51        0    0.0000
    817 H         165.7595  117.1135  165.3715 H        51        0    0.0000
    818 H         166.1533  116.6476  163.1722 H        51        0    0.0000
    819 H         164.4448  116.7991  162.7816 H        51        0    0.0000
    820 C         167.7343  118.1500  160.1079 C.3      52        0    0.0000
    821 C         167.7514  117.7546  161.5870 C.3      52        0    0.0000
    822 C         167.0740  118.8967  162.3524 C.3      52        0    0.0000
    823 C         165.5647  118.6408  162.5226 C.3      52        0    0.0000
    824 C         167.4181  120.1137  161.4842 C.3      52        0    0.0000
    825 C         167.2604  119.6116  160.0467 C.3      52        0    0.0000
    826 C         168.0178  120.4831  159.0384 C.3      52        0    0.0000
    827 H         168.7331  118.0155  159.6774 H        52        0    0.0000
    828 H         167.0489  117.5062  159.5448 H        52        0    0.0000
    829 H         168.7942  117.6660  161.9171 H        52        0    0.0000
    830 H         167.2786  116.7818  161.7556 H        52        0    0.0000
    831 H         167.5313  119.0020  163.3446 H        52        0    0.0000
    832 H         165.0948  118.5851  161.5331 H        52        0    0.0000
    833 H         165.0789  119.4670  163.0527 H        52        0    0.0000
    834 H         168.4583  120.4109  161.6713 H        52        0    0.0000
    835 H         166.7877  120.9855  161.6829 H        52        0    0.0000
    836 H         166.1912  119.6184  159.7924 H        52        0    0.0000
    837 H         167.3879  120.6918  158.1659 H        52        0    0.0000
    838 H         168.8961  119.9376  158.6734 H        52        0    0.0000
    839 C         168.4899  121.8233  159.6718 C.3      53        0    0.0000
    840 C         169.6582  122.4871  158.9289 C.3      53        0    0.0000
    841 H         168.8225  121.5919  160.6918 H        53        0    0.0000
    842 H         167.6381  122.5069  159.7674 H        53        0    0.0000
    843 H         170.5941  122.1203  159.3694 H        53        0    0.0000
    844 H         169.6747  122.1973  157.8717 H        53        0    0.0000
    845 C         172.0622  126.5779  157.5691 C.3      54        0    0.0000
    846 C         170.7639  126.2140  158.2731 C.3      54        0    0.0000
    847 C         170.6908  124.6962  158.0941 C.3      54        0    0.0000
    848 C         169.6836  124.0503  159.0488 C.3      54        0    0.0000
    849 C         172.1470  124.2344  158.2855 C.3      54        0    0.0000
    850 C         173.0285  125.4684  158.0031 C.3      54        0    0.0000
    851 C         174.2153  125.2279  157.0614 C.3      54        0    0.0000
    852 H         172.4211  127.5699  157.8610 H        54        0    0.0000
    853 H         171.9014  126.5853  156.4856 H        54        0    0.0000
    854 H         170.8186  126.4852  159.3345 H        54        0    0.0000
    855 H         169.9021  126.7247  157.8328 H        54        0    0.0000
    856 H         170.3980  124.4858  157.0551 H        54        0    0.0000
    857 H         169.9114  124.3294  160.0844 H        54        0    0.0000
    858 H         168.6804  124.4363  158.8324 H        54        0    0.0000
    859 H         172.3244  123.8972  159.3144 H        54        0    0.0000
    860 H         172.3729  123.3862  157.6307 H        54        0    0.0000
    861 H         173.4570  125.7754  158.9689 H        54        0    0.0000
    862 H         175.1490  125.3730  157.6176 H        54        0    0.0000
    863 H         174.2004  125.9863  156.2695 H        54        0    0.0000
    864 C         176.0809  123.4589  153.1118 C.3      55        0    0.0000
    865 C         174.9654  123.0178  154.0471 C.3      55        0    0.0000
    866 C         175.3805  123.6051  155.4020 C.3      55        0    0.0000
    867 C         174.2365  123.8193  156.4013 C.3      55        0    0.0000
    868 C         176.2167  124.8593  155.0745 C.3      55        0    0.0000
    869 C         176.3353  124.9056  153.5401 C.3      55        0    0.0000
    870 C         177.6726  125.4357  153.0170 C.3      55        0    0.0000
    871 H         176.9722  122.8382  153.2647 H        55        0    0.0000
    872 H         175.7874  123.3841  152.0603 H        55        0    0.0000
    873 H         174.0109  123.4242  153.6956 H        55        0    0.0000
    874 H         174.8714  121.9280  154.0854 H        55        0    0.0000
    875 H         176.0674  122.8831  155.8681 H        55        0    0.0000
    876 H         173.2810  123.6579  155.8881 H        55        0    0.0000
    877 H         174.3021  123.0595  157.1891 H        55        0    0.0000
    878 H         177.2028  124.7638  155.5460 H        55        0    0.0000
    879 H         175.7714  125.7842  155.4559 H        55        0    0.0000
    880 H         175.5167  125.5287  153.1514 H        55        0    0.0000
    881 H         177.5108  126.3279  152.4006 H        55        0    0.0000
    882 H         178.2951  125.7473  153.8642 H        55        0    0.0000
    883 C         178.4515  124.3755  152.1889 C.3      56        0    0.0000
    884 C         179.4284  124.9761  151.1679 C.3      56        0    0.0000
    885 H         177.7029  123.7898  151.6401 H        56        0    0.0000
    886 H         178.9601  123.6788  152.8656 H        56        0    0.0000
    887 H         178.8691  125.6729  150.5306 H        56        0    0.0000
    888 H         180.2112  125.5631  151.6624 H        56        0    0.0000
    889 C         183.7355  124.4184  149.7795 C.3      57        0    0.0000
    890 C         182.4392  124.9565  150.3903 C.3      57        0    0.0000
    891 C         181.2946  124.4950  149.4705 C.3      57        0    0.0000
    892 C         180.0842  123.9177  150.2147 C.3      57        0    0.0000
    893 C         181.9458  123.4722  148.5340 C.3      57        0    0.0000
    894 C         183.3833  123.9725  148.3562 C.3      57        0    0.0000
    895 C         183.4857  125.1102  147.3226 C.3      57        0    0.0000
    896 H         184.5434  125.1549  149.8244 H        57        0    0.0000
    897 H         184.0633  123.5458  150.3590 H        57        0    0.0000
    898 H         182.3310  124.5947  151.4187 H        57        0    0.0000
    899 H         182.4636  126.0517  150.4331 H        57        0    0.0000
    900 H         180.9706  125.3539  148.8655 H        57        0    0.0000
    901 H         179.3319  123.5918  149.4866 H        57        0    0.0000
    902 H         180.3753  123.0309  150.7893 H        57        0    0.0000
    903 H         181.4063  123.3828  147.5856 H        57        0    0.0000
    904 H         181.9594  122.4796  149.0026 H        57        0    0.0000
    905 H         184.0273  123.1394  148.0472 H        57        0    0.0000
    906 H         184.1968  125.8777  147.6480 H        57        0    0.0000
    907 H         182.5102  125.6011  147.2238 H        57        0    0.0000
    908 C         183.9055  124.5808  145.9207 C.3      58        0    0.0000
    909 C         182.7229  124.2467  145.0002 C.3      58        0    0.0000
    910 H         184.4933  125.3762  145.4447 H        58        0    0.0000
    911 H         184.5764  123.7215  146.0359 H        58        0    0.0000
    912 H         181.8088  124.7585  145.3235 H        58        0    0.0000
    913 H         182.9555  124.6244  143.9963 H        58        0    0.0000
    914 C         182.3214  119.5589  145.7636 C.3      59        0    0.0000
    915 C         181.6984  120.8186  146.3712 C.3      59        0    0.0000
    916 C         182.7115  121.9500  146.1652 C.3      59        0    0.0000
    917 C         182.4445  122.7107  144.8527 C.3      59        0    0.0000
    918 C         184.0469  121.1961  146.2021 C.3      59        0    0.0000
    919 C         183.7783  119.9091  145.4180 C.3      59        0    0.0000
    920 C         184.7911  118.8055  145.7441 C.3      59        0    0.0000
    921 H         182.2480  118.7293  146.4760 H        59        0    0.0000
    922 H         181.7798  119.2588  144.8593 H        59        0    0.0000
    923 H         181.5504  120.6564  147.4464 H        59        0    0.0000
    924 H         180.7150  121.0361  145.9420 H        59        0    0.0000
    925 H         182.6559  122.6562  147.0036 H        59        0    0.0000
    926 H         181.3942  122.5775  144.5663 H        59        0    0.0000
    927 H         183.0457  122.3078  144.0306 H        59        0    0.0000
    928 H         184.3026  120.9607  147.2435 H        59        0    0.0000
    929 H         184.8819  121.7635  145.7803 H        59        0    0.0000
    930 H         183.8337  120.1390  144.3447 H        59        0    0.0000
    931 H         184.3809  117.8227  145.4845 H        59        0    0.0000
    932 H         184.9831  118.7950  146.8235 H        59        0    0.0000
    933 C         187.0849  115.7382  143.3583 C.3      60        0    0.0000
    934 C         186.0616  116.5946  144.0884 C.3      60        0    0.0000
    935 C         186.9047  117.7265  144.6892 C.3      60        0    0.0000
    936 C         186.1399  119.0196  144.9989 C.3      60        0    0.0000
    937 C         188.1196  117.8844  143.7518 C.3      60        0    0.0000
    938 C         187.9871  116.7775  142.6898 C.3      60        0    0.0000
    939 C         189.3149  116.1749  142.2242 C.3      60        0    0.0000
    940 H         187.6480  115.1266  144.0738 H        60        0    0.0000
    941 H         186.6149  115.0691  142.6310 H        60        0    0.0000
    942 H         185.3193  116.9668  143.3740 H        60        0    0.0000
    943 H         185.5297  116.0277  144.8589 H        60        0    0.0000
    944 H         187.2956  117.3603  145.6503 H        60        0    0.0000
    945 H         186.7769  119.6726  145.6073 H        60        0    0.0000
    946 H         185.9461  119.5544  144.0616 H        60        0    0.0000
    947 H         189.0398  117.7647  144.3371 H        60        0    0.0000
    948 H         188.1714  118.8703  143.2781 H        60        0    0.0000
    949 H         187.4504  117.1942  141.8251 H        60        0    0.0000
    950 H         189.8142  115.6691  143.0591 H        60        0    0.0000
    951 H         189.1186  115.4089  141.4645 H        60        0    0.0000
    952 C         189.1470  120.7850  142.2445 C.3      61        0    0.0000
    953 C         189.1032  119.2907  142.5744 C.3      61        0    0.0000
    954 C         189.5597  118.5563  141.3069 C.3      61        0    0.0000
    955 C         190.2747  117.2396  141.6228 C.3      61        0    0.0000
    956 C         190.4270  119.5988  140.5936 C.3      61        0    0.0000
    957 C         189.6280  120.8912  140.7914 C.3      61        0    0.0000
    958 C         190.4193  122.1764  140.5327 C.3      61        0    0.0000
    959 H         188.1635  121.2510  142.3677 H        61        0    0.0000
    960 H         189.8347  121.2908  142.9328 H        61        0    0.0000
    961 H         188.0968  118.9754  142.8701 H        61        0    0.0000
    962 H         189.7700  119.0839  143.4201 H        61        0    0.0000
    963 H         188.6724  118.3559  140.6887 H        61        0    0.0000
    964 H         191.0804  117.4288  142.3422 H        61        0    0.0000
    965 H         190.7463  116.8367  140.7188 H        61        0    0.0000
    966 H         190.5642  119.3608  139.5340 H        61        0    0.0000
    967 H         191.4166  119.6732  141.0617 H        61        0    0.0000
    968 H         188.7458  120.8620  140.1354 H        61        0    0.0000
    969 H         190.6549  122.6751  141.4801 H        61        0    0.0000
    970 H         189.7999  122.8726  139.9545 H        61        0    0.0000
    971 C         191.7327  121.9135  139.7461 C.3      62        0    0.0000
    972 C         191.6976  122.4041  138.2916 C.3      62        0    0.0000
    973 H         192.5296  122.4570  140.2696 H        62        0    0.0000
    974 H         191.9901  120.8493  139.8020 H        62        0    0.0000
    975 H         190.6690  122.4728  137.9185 H        62        0    0.0000
    976 H         192.1094  123.4212  138.2653 H        62        0    0.0000
    977 C         196.2127  121.3362  137.6082 C.3      63        0    0.0000
    978 C         194.9363  122.0052  138.1161 C.3      63        0    0.0000
    979 C         193.8106  120.9648  137.9844 C.3      63        0    0.0000
    980 C         192.5602  121.5409  137.3071 C.3      63        0    0.0000
    981 C         194.4494  119.7915  137.2253 C.3      63        0    0.0000
    982 C         195.9326  119.8312  137.6144 C.3      63        0    0.0000
    983 C         196.2427  119.1988  138.9835 C.3      63        0    0.0000
    984 H         196.3995  121.6646  136.5778 H        63        0    0.0000
    985 H         197.0887  121.6176  138.2010 H        63        0    0.0000
    986 H         194.7363  122.9234  137.5531 H        63        0    0.0000
    987 H         195.0513  122.2912  139.1683 H        63        0    0.0000
    988 H         193.5456  120.6251  138.9956 H        63        0    0.0000
    989 H         191.9470  120.7338  136.8897 H        63        0    0.0000
    990 H         192.8640  122.1751  136.4655 H        63        0    0.0000
    991 H         193.9681  118.8380  137.4634 H        63        0    0.0000
    992 H         194.3584  119.9440  136.1419 H        63        0    0.0000
    993 H         196.5392  119.3393  136.8433 H        63        0    0.0000
    994 H         195.3547  119.1839  139.6246 H        63        0    0.0000
    995 H         196.9926  119.8090  139.5013 H        63        0    0.0000
    996 C         199.9760  116.2179  137.4953 C.3      64        0    0.0000
    997 C         199.1412  116.7529  138.6617 C.3      64        0    0.0000
    998 C         198.1162  117.7175  138.0509 C.3      64        0    0.0000
    999 C         196.8082  117.7569  138.8460 C.3      64        0    0.0000
   1000 C         197.9739  117.2092  136.6124 C.3      64        0    0.0000
   1001 C         199.4206  116.8814  136.2282 C.3      64        0    0.0000
   1002 C         199.5660  115.9892  134.9924 C.3      64        0    0.0000
   1003 H         201.0390  116.4477  137.6253 H        64        0    0.0000
   1004 H         199.8828  115.1261  137.4503 H        64        0    0.0000
   1005 H         199.7678  117.2626  139.4016 H        64        0    0.0000
   1006 H         198.6500  115.9164  139.1730 H        64        0    0.0000
   1007 H         198.5636  118.7218  138.0254 H        64        0    0.0000
   1008 H         196.9831  117.3537  139.8507 H        64        0    0.0000
   1009 H         196.0566  117.1136  138.3737 H        64        0    0.0000
   1010 H         197.5370  117.9657  135.9527 H        64        0    0.0000
   1011 H         197.3440  116.3117  136.5733 H        64        0    0.0000
   1012 H         199.9636  117.8245  136.0692 H        64        0    0.0000
   1013 H         198.6465  115.4156  134.8271 H        64        0    0.0000
   1014 H         200.3667  115.2599  135.1646 H        64        0    0.0000
   1015 C         199.9052  116.8023  133.7131 C.3      65        0    0.0000
   1016 C         200.8849  116.0950  132.7658 C.3      65        0    0.0000
   1017 H         200.3704  117.7386  134.0469 H        65        0    0.0000
   1018 H         198.9795  117.0794  133.1952 H        65        0    0.0000
   1019 H         201.6227  115.5593  133.3770 H        65        0    0.0000
   1020 H         200.3753  115.3396  132.1562 H        65        0    0.0000
   1021 C         203.2745  115.4545  128.8958 C.3      66        0    0.0000
   1022 C         202.4381  115.2555  130.1622 C.3      66        0    0.0000
   1023 C         202.8607  116.3605  131.1469 C.3      66        0    0.0000
   1024 C         201.6887  117.0694  131.8368 C.3      66        0    0.0000
   1025 C         203.7081  117.3192  130.3044 C.3      66        0    0.0000
   1026 C         204.4028  116.4189  129.2771 C.3      66        0    0.0000
   1027 C         205.6375  115.7058  129.8606 C.3      66        0    0.0000
   1028 H         203.6265  114.5028  128.4864 H        66        0    0.0000
   1029 H         202.6459  115.9223  128.1273 H        66        0    0.0000
   1030 H         201.3711  115.2901  129.9159 H        66        0    0.0000
   1031 H         202.6375  114.2706  130.6002 H        66        0    0.0000
   1032 H         203.5114  115.9113  131.9108 H        66        0    0.0000
   1033 H         202.0726  117.8951  132.4477 H        66        0    0.0000
   1034 H         201.0164  117.5110  131.0922 H        66        0    0.0000
   1035 H         204.4143  117.8888  130.9172 H        66        0    0.0000
   1036 H         203.0650  118.0402  129.7832 H        66        0    0.0000
   1037 H         204.7036  117.0169  128.4075 H        66        0    0.0000
   1038 H         205.3608  114.7543  130.3279 H        66        0    0.0000
   1039 H         206.0806  116.3296  130.6461 H        66        0    0.0000
   1040 C         208.5173  112.4143  129.7946 C.3      67        0    0.0000
   1041 C         208.2733  113.4244  128.6745 C.3      67        0    0.0000
   1042 C         207.9722  114.7717  129.3535 C.3      67        0    0.0000
   1043 C         206.7232  115.4500  128.7754 C.3      67        0    0.0000
   1044 C         207.8688  114.4408  130.8504 C.3      67        0    0.0000
   1045 C         208.7996  113.2385  131.0534 C.3      67        0    0.0000
   1046 C         210.2897  113.6074  131.1716 C.3      67        0    0.0000
   1047 H         207.6039  111.8249  129.9461 H        67        0    0.0000
   1048 H         209.3185  111.7109  129.5471 H        67        0    0.0000
   1049 H         207.4606  113.0839  128.0235 H        67        0    0.0000
   1050 H         209.1685  113.5200  128.0488 H        67        0    0.0000
   1051 H         208.8400  115.4284  129.1990 H        67        0    0.0000
   1052 H         206.3004  114.8433  127.9662 H        67        0    0.0000
   1053 H         207.0058  116.4134  128.3343 H        67        0    0.0000
   1054 H         208.1301  115.2975  131.4791 H        67        0    0.0000
   1055 H         206.8422  114.1470  131.1054 H        67        0    0.0000
   1056 H         208.4960  112.6711  131.9424 H        67        0    0.0000
   1057 H         210.8483  112.8360  131.7124 H        67        0    0.0000
   1058 H         210.3875  114.5314  131.7542 H        67        0    0.0000
   1059 C         210.9446  113.8443  129.7814 C.3      68        0    0.0000
   1060 C         212.4665  113.6415  129.7660 C.3      68        0    0.0000
   1061 H         210.4973  113.1166  129.0922 H        68        0    0.0000
   1062 H         210.6709  114.8383  129.4086 H        68        0    0.0000
   1063 H         212.9750  114.3909  130.3839 H        68        0    0.0000
   1064 H         212.6843  112.6642  130.2155 H        68        0    0.0000
   1065 C         215.0458  111.1321  127.4719 C.3      69        0    0.0000
   1066 C         214.9303  111.9339  128.7711 C.3      69        0    0.0000
   1067 C         214.6124  113.3776  128.3668 C.3      69        0    0.0000
   1068 C         213.0931  113.6285  128.3287 C.3      69        0    0.0000
   1069 C         215.3092  113.4907  127.0050 C.3      69        0    0.0000
   1070 C         215.0252  112.1513  126.3205 C.3      69        0    0.0000
   1071 C         216.0164  111.8523  125.1900 C.3      69        0    0.0000
   1072 H         215.9648  110.5352  127.4860 H        69        0    0.0000
   1073 H         214.2068  110.4338  127.3740 H        69        0    0.0000
   1074 H         215.8970  111.9076  129.2898 H        69        0    0.0000
   1075 H         214.1896  111.5033  129.4527 H        69        0    0.0000
   1076 H         215.0702  114.0734  129.0817 H        69        0    0.0000
   1077 H         212.6107  112.8311  127.7505 H        69        0    0.0000
   1078 H         212.8584  114.5692  127.8193 H        69        0    0.0000
   1079 H         216.3888  113.6178  127.1587 H        69        0    0.0000
   1080 H         214.9623  114.3369  126.4045 H        69        0    0.0000
   1081 H         214.0082  112.1832  125.9047 H        69        0    0.0000
   1082 H         215.5738  112.1023  124.2188 H        69        0    0.0000
   1083 H         216.2355  110.7782  125.1726 H        69        0    0.0000
   1084 C         218.1989  113.1535  129.0374 C.3      70        0    0.0000
   1085 C         217.1714  113.0570  127.9182 C.3      70        0    0.0000
   1086 C         217.9860  112.4811  126.7553 C.3      70        0    0.0000
   1087 C         217.3508  112.6316  125.3696 C.3      70        0    0.0000
   1088 C         219.3957  113.0848  126.9091 C.3      70        0    0.0000
   1089 C         219.4352  113.7049  128.3196 C.3      70        0    0.0000
   1090 C         220.7588  113.5460  129.0740 C.3      70        0    0.0000
   1091 H         217.8638  113.8126  129.8443 H        70        0    0.0000
   1092 H         218.3779  112.1596  129.4621 H        70        0    0.0000
   1093 H         216.3302  112.4120  128.1902 H        70        0    0.0000
   1094 H         216.7767  114.0534  127.6913 H        70        0    0.0000
   1095 H         218.0835  111.4003  126.9386 H        70        0    0.0000
   1096 H         217.1671  113.6946  125.1735 H        70        0    0.0000
   1097 H         218.0634  112.2896  124.6096 H        70        0    0.0000
   1098 H         219.6116  113.8576  126.1635 H        70        0    0.0000
   1099 H         220.1472  112.3006  126.7676 H        70        0    0.0000
   1100 H         219.2751  114.7864  128.1939 H        70        0    0.0000
   1101 H         220.9782  114.4759  129.6119 H        70        0    0.0000
   1102 H         220.6472  112.7622  129.8326 H        70        0    0.0000
   1103 C         221.9752  113.1940  128.1659 C.3      71        0    0.0000
   1104 C         223.2273  114.0375  128.4457 C.3      71        0    0.0000
   1105 H         221.6625  113.3817  127.1307 H        71        0    0.0000
   1106 H         222.1922  112.1218  128.2382 H        71        0    0.0000
   1107 H         222.9017  115.0475  128.7259 H        71        0    0.0000
   1108 H         223.7920  113.6425  129.2982 H        71        0    0.0000
   1109 C         224.1785  114.1953  127.2092 C.3      72        0    0.0000
   1110 C         225.0765  115.4393  127.2677 C.3      72        0    0.0000
   1111 H         223.5356  114.2808  126.3238 H        72        0    0.0000
   1112 H         224.7705  113.2817  127.0796 H        72        0    0.0000
   1113 H         224.4346  116.3155  127.4254 H        72        0    0.0000
   1114 H         225.7629  115.3960  128.1214 H        72        0    0.0000
   1115 C         227.8061  118.3832  127.7838 C.3      73        0    0.0000
   1116 C         226.5324  117.8833  127.0972 C.3      73        0    0.0000
   1117 C         226.9697  116.7690  126.1372 C.3      73        0    0.0000
   1118 C         225.8865  115.7028  125.9512 C.3      73        0    0.0000
   1119 C         228.2688  116.2563  126.7675 C.3      73        0    0.0000
   1120 C         228.9599  117.5503  127.2101 C.3      73        0    0.0000
   1121 C         230.0945  117.3546  128.2195 C.3      73        0    0.0000
   1122 H         227.9653  119.4517  127.6029 H        73        0    0.0000
   1123 H         227.7136  118.2475  128.8680 H        73        0    0.0000
   1124 H         226.0257  118.6903  126.5573 H        73        0    0.0000
   1125 H         225.8325  117.5092  127.8540 H        73        0    0.0000
   1126 H         227.2079  117.2272  125.1663 H        73        0    0.0000
   1127 H         226.3545  114.7626  125.6356 H        73        0    0.0000
   1128 H         225.1970  115.9967  125.1511 H        73        0    0.0000
   1129 H         228.8758  115.6925  126.0520 H        73        0    0.0000
   1130 H         228.0591  115.6087  127.6280 H        73        0    0.0000
   1131 H         229.3440  118.0657  126.3177 H        73        0    0.0000
   1132 H         229.9854  116.3918  128.7324 H        73        0    0.0000
   1133 H         230.0315  118.1322  128.9902 H        73        0    0.0000
   1134 C         233.6161  117.6945  130.6983 C.3      74        0    0.0000
   1135 C         232.7274  116.8821  129.7668 C.3      74        0    0.0000
   1136 C         232.6342  117.7709  128.5222 C.3      74        0    0.0000
   1137 C         231.4964  117.4303  127.5549 C.3      74        0    0.0000
   1138 C         232.6429  119.2171  129.0548 C.3      74        0    0.0000
   1139 C         233.0754  119.1183  130.5308 C.3      74        0    0.0000
   1140 C         234.0004  120.2351  131.0241 C.3      74        0    0.0000
   1141 H         233.5476  117.3478  131.7341 H        74        0    0.0000
   1142 H         234.6609  117.6103  130.3797 H        74        0    0.0000
   1143 H         233.1595  115.9023  129.5411 H        74        0    0.0000
   1144 H         231.7493  116.7231  130.2340 H        74        0    0.0000
   1145 H         233.5717  117.6348  127.9622 H        74        0    0.0000
   1146 H         231.4679  118.1818  126.7570 H        74        0    0.0000
   1147 H         231.7106  116.4684  127.0741 H        74        0    0.0000
   1148 H         231.6616  119.6997  128.9924 H        74        0    0.0000
   1149 H         233.3251  119.8254  128.4511 H        74        0    0.0000
   1150 H         232.1573  119.1838  131.1341 H        74        0    0.0000
   1151 H         233.6748  121.1877  130.5896 H        74        0    0.0000
   1152 H         233.8963  120.3328  132.1112 H        74        0    0.0000
   1153 C         235.5052  120.0177  130.6830 C.3      75        0    0.0000
   1154 C         236.4082  121.1998  131.0632 C.3      75        0    0.0000
   1155 H         235.8356  119.1398  131.2529 H        75        0    0.0000
   1156 H         235.6102  119.7605  129.6224 H        75        0    0.0000
   1157 H         235.9283  122.1584  130.8335 H        75        0    0.0000
   1158 H         236.5593  121.1770  132.1501 H        75        0    0.0000
   1159 C         239.3312  117.8472  130.9640 C.3      76        0    0.0000
   1160 C         238.0482  118.6764  130.9955 C.3      76        0    0.0000
   1161 C         238.1884  119.7475  129.8999 C.3      76        0    0.0000
   1162 C         237.8317  121.1509  130.4073 C.3      76        0    0.0000
   1163 C         239.6356  119.6109  129.4023 C.3      76        0    0.0000
   1164 C         239.9857  118.1318  129.6096 C.3      76        0    0.0000
   1165 C         239.4506  117.1969  128.5097 C.3      76        0    0.0000
   1166 H         239.9962  118.1920  131.7661 H        76        0    0.0000
   1167 H         239.1384  116.7840  131.1385 H        76        0    0.0000
   1168 H         237.8940  119.1037  131.9923 H        76        0    0.0000
   1169 H         237.1811  118.0412  130.7797 H        76        0    0.0000
   1170 H         237.5087  119.4804  129.0785 H        76        0    0.0000
   1171 H         237.8856  121.8773  129.5880 H        76        0    0.0000
   1172 H         238.5692  121.4634  131.1564 H        76        0    0.0000
   1173 H         239.7449  119.9367  128.3633 H        76        0    0.0000
   1174 H         240.3081  120.2278  130.0126 H        76        0    0.0000
   1175 H         241.0731  118.0084  129.6915 H        76        0    0.0000
   1176 H         238.5823  117.6335  128.0046 H        76        0    0.0000
   1177 H         239.1087  116.2604  128.9669 H        76        0    0.0000
   1178 C         242.0566  120.1164  128.3493 C.3      77        0    0.0000
   1179 C         240.8972  119.3955  127.6573 C.3      77        0    0.0000
   1180 C         241.4503  118.0473  127.1616 C.3      77        0    0.0000
   1181 C         240.5417  116.8479  127.4582 C.3      77        0    0.0000
   1182 C         242.8191  117.9238  127.8386 C.3      77        0    0.0000
   1183 C         243.3291  119.3651  127.9431 C.3      77        0    0.0000
   1184 C         243.9348  119.8713  126.6202 C.3      77        0    0.0000
   1185 H         242.0766  121.1829  128.1057 H        77        0    0.0000
   1186 H         241.9236  120.0372  129.4359 H        77        0    0.0000
   1187 H         240.0582  119.2815  128.3526 H        77        0    0.0000
   1188 H         240.5350  119.9845  126.8066 H        77        0    0.0000
   1189 H         241.6115  118.1187  126.0764 H        77        0    0.0000
   1190 H         240.0450  116.5311  126.5334 H        77        0    0.0000
   1191 H         241.1351  115.9954  127.8082 H        77        0    0.0000
   1192 H         243.4969  117.2725  127.2773 H        77        0    0.0000
   1193 H         242.7104  117.5004  128.8455 H        77        0    0.0000
   1194 H         244.0820  119.4322  128.7387 H        77        0    0.0000
   1195 H         244.8656  120.4220  126.7962 H        77        0    0.0000
   1196 H         243.2366  120.5699  126.1440 H        77        0    0.0000
   1197 C         244.9424  115.0776  126.4321 C.3      78        0    0.0000
   1198 C         244.6693  116.1652  125.4044 C.3      78        0    0.0000
   1199 C         244.0733  117.3057  126.2392 C.3      78        0    0.0000
   1200 C         244.2066  118.7054  125.6259 C.3      78        0    0.0000
   1201 C         244.6688  117.1431  127.6529 C.3      78        0    0.0000
   1202 C         245.5187  115.8598  127.6140 C.3      78        0    0.0000
   1203 C         245.5045  115.0431  128.9085 C.3      78        0    0.0000
   1204 H         244.0084  114.5734  126.7087 H        78        0    0.0000
   1205 H         245.6402  114.3236  126.0551 H        78        0    0.0000
   1206 H         245.6079  116.4548  124.9197 H        78        0    0.0000
   1207 H         243.9804  115.8264  124.6242 H        78        0    0.0000
   1208 H         242.9946  117.1085  126.3287 H        78        0    0.0000
   1209 H         245.2182  118.8204  125.2185 H        78        0    0.0000
   1210 H         243.5153  118.7929  124.7794 H        78        0    0.0000
   1211 H         243.8494  117.0546  128.3772 H        78        0    0.0000
   1212 H         245.2759  117.9996  127.9644 H        78        0    0.0000
   1213 H         246.5533  116.1409  127.3692 H        78        0    0.0000
   1214 H         245.2495  113.9985  128.6940 H        78        0    0.0000
   1215 H         246.5105  115.0381  129.3448 H        78        0    0.0000
   1216 C         243.6919  118.9982  128.4476 C.3      79        0    0.0000
   1217 C         244.4186  117.6621  128.3839 C.3      79        0    0.0000
   1218 C         243.7448  116.8533  129.4972 C.3      79        0    0.0000
   1219 C         244.5078  115.6081  129.9592 C.3      79        0    0.0000
   1220 C         243.4149  117.8778  130.6004 C.3      79        0    0.0000
   1221 C         243.5979  119.2647  129.9535 C.3      79        0    0.0000
   1222 C         242.5771  120.3278  130.3706 C.3      79        0    0.0000
   1223 H         244.2404  119.7873  127.9238 H        79        0    0.0000
   1224 H         242.7041  118.9047  127.9832 H        79        0    0.0000
   1225 H         244.3106  117.1842  127.4053 H        79        0    0.0000
   1226 H         245.4872  117.8127  128.5729 H        79        0    0.0000
   1227 H         242.7827  116.4995  129.0968 H        79        0    0.0000
   1228 H         245.0599  115.8462  130.8761 H        79        0    0.0000
   1229 H         243.7882  114.8229  130.2198 H        79        0    0.0000
   1230 H         244.0721  117.7910  131.4723 H        79        0    0.0000
   1231 H         242.3956  117.7088  130.9640 H        79        0    0.0000
   1232 H         244.5834  119.6352  130.2739 H        79        0    0.0000
   1233 H         243.1108  121.2069  130.7509 H        79        0    0.0000
   1234 H         242.0197  120.6563  129.4854 H        79        0    0.0000
   1235 C         241.5622  119.8513  131.4528 C.3      80        0    0.0000
   1236 C         241.7100  120.5654  132.8040 C.3      80        0    0.0000
   1237 H         241.7472  118.7812  131.6113 H        80        0    0.0000
   1238 H         240.5405  119.9388  131.0651 H        80        0    0.0000
   1239 H         241.3870  119.8730  133.5920 H        80        0    0.0000
   1240 H         242.7579  120.8110  133.0129 H        80        0    0.0000
   1241 H         241.0964  121.4610  132.9011 H        80        0    0.0000
   1242 H          99.3314  233.0903  122.3145 H         0        0    0.0000
@<TRIPOS>BOND
     1     1     2      1
     2     1     6      1
     3     1     8      1
     4     1     9      1
     5     2     3      1
     6     2    10      1
     7     2    11      1
     8     3     4      1
     9     3     5      1
    10     3    12      1
    11     4    13      1
    12     4    14      1
    13     4  1242      H
    14     5     6      1
    15     5    15      1
    16     5    16      1
    17     6     7      1
    18     6    17      1
    19     7    18      1
    20     7    19      1
    21     7    23      1
    22    20    21      1
    23    20    25      1
    24    20    27      1
    25    20    28      1
    26    21    22      1
    27    21    29      1
    28    21    30      1
    29    22    23      1
    30    22    24      1
    31    22    31      1
    32    23    32      1
    33    23    33      1
    34    24    25      1
    35    24    34      1
    36    24    35      1
    37    25    26      1
    38    25    36      1
    39    26    37      1
    40    26    38      1
    41    26    39      1
    42    39    40      1
    43    39    41      1
    44    39    42      1
    45    40    43      1
    46    40    44      1
    47    40    48      1
    48    45    46      1
    49    45    50      1
    50    45    52      1
    51    45    53      1
    52    46    47      1
    53    46    54      1
    54    46    55      1
    55    47    48      1
    56    47    49      1
    57    47    56      1
    58    48    57      1
    59    48    58      1
    60    49    50      1
    61    49    59      1
    62    49    60      1
    63    50    51      1
    64    50    61      1
    65    51    62      1
    66    51    63      1
    67    51    64      1
    68    64    65      1
    69    64    66      1
    70    64    67      1
    71    65    68      1
    72    65    69      1
    73    65    73      1
    74    70    71      1
    75    70    75      1
    76    70    77      1
    77    70    78      1
    78    71    72      1
    79    71    79      1
    80    71    80      1
    81    72    73      1
    82    72    74      1
    83    72    81      1
    84    73    82      1
    85    73    83      1
    86    74    75      1
    87    74    84      1
    88    74    85      1
    89    75    76      1
    90    75    86      1
    91    76    87      1
    92    76    88      1
    93    76    92      1
    94    89    90      1
    95    89    94      1
    96    89    96      1
    97    89    97      1
    98    90    91      1
    99    90    98      1
   100    90    99      1
   101    91    92      1
   102    91    93      1
   103    91   100      1
   104    92   101      1
   105    92   102      1
   106    93    94      1
   107    93   103      1
   108    93   104      1
   109    94    95      1
   110    94   105      1
   111    95   106      1
   112    95   107      1
   113    95   108      1
   114   108   109      1
   115   108   110      1
   116   108   111      1
   117   109   112      1
   118   109   113      1
   119   109   114      1
   120   114   115      1
   121   114   116      1
   122   114   117      1
   123   115   118      1
   124   115   119      1
   125   115   120      1
   126   120   121      1
   127   120   122      1
   128   120   123      1
   129   121   124      1
   130   121   125      1
   131   121   126      1
   132   126   127      1
   133   126   128      1
   134   126   129      1
   135   127   130      1
   136   127   131      1
   137   127   135      1
   138   132   133      1
   139   132   137      1
   140   132   139      1
   141   132   140      1
   142   133   134      1
   143   133   141      1
   144   133   142      1
   145   134   135      1
   146   134   136      1
   147   134   143      1
   148   135   144      1
   149   135   145      1
   150   136   137      1
   151   136   146      1
   152   136   147      1
   153   137   138      1
   154   137   148      1
   155   138   149      1
   156   138   150      1
   157   138   154      1
   158   151   152      1
   159   151   156      1
   160   151   158      1
   161   151   159      1
   162   152   153      1
   163   152   160      1
   164   152   161      1
   165   153   154      1
   166   153   155      1
   167   153   162      1
   168   154   163      1
   169   154   164      1
   170   155   156      1
   171   155   165      1
   172   155   166      1
   173   156   157      1
   174   156   167      1
   175   157   168      1
   176   157   169      1
   177   157   170      1
   178   170   171      1
   179   170   172      1
   180   170   173      1
   181   171   174      1
   182   171   175      1
   183   171   179      1
   184   176   177      1
   185   176   181      1
   186   176   183      1
   187   176   184      1
   188   177   178      1
   189   177   185      1
   190   177   186      1
   191   178   179      1
   192   178   180      1
   193   178   187      1
   194   179   188      1
   195   179   189      1
   196   180   181      1
   197   180   190      1
   198   180   191      1
   199   181   182      1
   200   181   192      1
   201   182   193      1
   202   182   194      1
   203   182   195      1
   204   195   196      1
   205   195   197      1
   206   195   198      1
   207   196   199      1
   208   196   200      1
   209   196   204      1
   210   201   202      1
   211   201   206      1
   212   201   208      1
   213   201   209      1
   214   202   203      1
   215   202   210      1
   216   202   211      1
   217   203   204      1
   218   203   205      1
   219   203   212      1
   220   204   213      1
   221   204   214      1
   222   205   206      1
   223   205   215      1
   224   205   216      1
   225   206   207      1
   226   206   217      1
   227   207   218      1
   228   207   219      1
   229   207   223      1
   230   220   221      1
   231   220   225      1
   232   220   227      1
   233   220   228      1
   234   221   222      1
   235   221   229      1
   236   221   230      1
   237   222   223      1
   238   222   224      1
   239   222   231      1
   240   223   232      1
   241   223   233      1
   242   224   225      1
   243   224   234      1
   244   224   235      1
   245   225   226      1
   246   225   236      1
   247   226   237      1
   248   226   238      1
   249   226   242      1
   250   239   240      1
   251   239   244      1
   252   239   246      1
   253   239   247      1
   254   240   241      1
   255   240   248      1
   256   240   249      1
   257   241   242      1
   258   241   243      1
   259   241   250      1
   260   242   251      1
   261   242   252      1
   262   243   244      1
   263   243   253      1
   264   243   254      1
   265   244   245      1
   266   244   255      1
   267   245   256      1
   268   245   257      1
   269   245   261      1
   270   258   259      1
   271   258   263      1
   272   258   265      1
   273   258   266      1
   274   259   260      1
   275   259   267      1
   276   259   268      1
   277   260   261      1
   278   260   262      1
   279   260   269      1
   280   261   270      1
   281   261   271      1
   282   262   263      1
   283   262   272      1
   284   262   273      1
   285   263   264      1
   286   263   274      1
   287   264   275      1
   288   264   276      1
   289   264   277      1
   290   277   278      1
   291   277   279      1
   292   277   280      1
   293   278   281      1
   294   278   282      1
   295   278   286      1
   296   283   284      1
   297   283   288      1
   298   283   290      1
   299   283   291      1
   300   284   285      1
   301   284   292      1
   302   284   293      1
   303   285   286      1
   304   285   287      1
   305   285   294      1
   306   286   295      1
   307   286   296      1
   308   287   288      1
   309   287   297      1
   310   287   298      1
   311   288   289      1
   312   288   299      1
   313   289   300      1
   314   289   301      1
   315   289   305      1
   316   302   303      1
   317   302   307      1
   318   302   309      1
   319   302   310      1
   320   303   304      1
   321   303   311      1
   322   303   312      1
   323   304   305      1
   324   304   306      1
   325   304   313      1
   326   305   314      1
   327   305   315      1
   328   306   307      1
   329   306   316      1
   330   306   317      1
   331   307   308      1
   332   307   318      1
   333   308   319      1
   334   308   320      1
   335   308   324      1
   336   321   322      1
   337   321   326      1
   338   321   328      1
   339   321   329      1
   340   322   323      1
   341   322   330      1
   342   322   331      1
   343   323   324      1
   344   323   325      1
   345   323   332      1
   346   324   333      1
   347   324   334      1
   348   325   326      1
   349   325   335      1
   350   325   336      1
   351   326   327      1
   352   326   337      1
   353   327   338      1
   354   327   339      1
   355   327   343      1
   356   340   341      1
   357   340   345      1
   358   340   347      1
   359   340   348      1
   360   341   342      1
   361   341   349      1
   362   341   350      1
   363   342   343      1
   364   342   344      1
   365   342   351      1
   366   343   352      1
   367   343   353      1
   368   344   345      1
   369   344   354      1
   370   344   355      1
   371   345   346      1
   372   345   356      1
   373   346   357      1
   374   346   358      1
   375   346   362      1
   376   359   360      1
   377   359   364      1
   378   359   366      1
   379   359   367      1
   380   360   361      1
   381   360   368      1
   382   360   369      1
   383   361   362      1
   384   361   363      1
   385   361   370      1
   386   362   371      1
   387   362   372      1
   388   363   364      1
   389   363   373      1
   390   363   374      1
   391   364   365      1
   392   364   375      1
   393   365   376      1
   394   365   377      1
   395   365   381      1
   396   378   379      1
   397   378   383      1
   398   378   385      1
   399   378   386      1
   400   379   380      1
   401   379   387      1
   402   379   388      1
   403   380   381      1
   404   380   382      1
   405   380   389      1
   406   381   390      1
   407   381   391      1
   408   382   383      1
   409   382   392      1
   410   382   393      1
   411   383   384      1
   412   383   394      1
   413   384   395      1
   414   384   396      1
   415   384   397      1
   416   397   398      1
   417   397   399      1
   418   397   400      1
   419   398   401      1
   420   398   402      1
   421   398   406      1
   422   403   404      1
   423   403   408      1
   424   403   410      1
   425   403   411      1
   426   404   405      1
   427   404   412      1
   428   404   413      1
   429   405   406      1
   430   405   407      1
   431   405   414      1
   432   406   415      1
   433   406   416      1
   434   407   408      1
   435   407   417      1
   436   407   418      1
   437   408   409      1
   438   408   419      1
   439   409   420      1
   440   409   421      1
   441   409   425      1
   442   422   423      1
   443   422   427      1
   444   422   429      1
   445   422   430      1
   446   423   424      1
   447   423   431      1
   448   423   432      1
   449   424   425      1
   450   424   426      1
   451   424   433      1
   452   425   434      1
   453   425   435      1
   454   426   427      1
   455   426   436      1
   456   426   437      1
   457   427   428      1
   458   427   438      1
   459   428   439      1
   460   428   440      1
   461   428   444      1
   462   441   442      1
   463   441   446      1
   464   441   448      1
   465   441   449      1
   466   442   443      1
   467   442   450      1
   468   442   451      1
   469   443   444      1
   470   443   445      1
   471   443   452      1
   472   444   453      1
   473   444   454      1
   474   445   446      1
   475   445   455      1
   476   445   456      1
   477   446   447      1
   478   446   457      1
   479   447   458      1
   480   447   459      1
   481   447   463      1
   482   460   461      1
   483   460   465      1
   484   460   467      1
   485   460   468      1
   486   461   462      1
   487   461   469      1
   488   461   470      1
   489   462   463      1
   490   462   464      1
   491   462   471      1
   492   463   472      1
   493   463   473      1
   494   464   465      1
   495   464   474      1
   496   464   475      1
   497   465   466      1
   498   465   476      1
   499   466   477      1
   500   466   478      1
   501   466   479      1
   502   479   480      1
   503   479   481      1
   504   479   482      1
   505   480   483      1
   506   480   484      1
   507   480   488      1
   508   485   486      1
   509   485   490      1
   510   485   492      1
   511   485   493      1
   512   486   487      1
   513   486   494      1
   514   486   495      1
   515   487   488      1
   516   487   489      1
   517   487   496      1
   518   488   497      1
   519   488   498      1
   520   489   490      1
   521   489   499      1
   522   489   500      1
   523   490   491      1
   524   490   501      1
   525   491   502      1
   526   491   503      1
   527   491   507      1
   528   504   505      1
   529   504   509      1
   530   504   511      1
   531   504   512      1
   532   505   506      1
   533   505   513      1
   534   505   514      1
   535   506   507      1
   536   506   508      1
   537   506   515      1
   538   507   516      1
   539   507   517      1
   540   508   509      1
   541   508   518      1
   542   508   519      1
   543   509   510      1
   544   509   520      1
   545   510   521      1
   546   510   522      1
   547   510   526      1
   548   523   524      1
   549   523   528      1
   550   523   530      1
   551   523   531      1
   552   524   525      1
   553   524   532      1
   554   524   533      1
   555   525   526      1
   556   525   527      1
   557   525   534      1
   558   526   535      1
   559   526   536      1
   560   527   528      1
   561   527   537      1
   562   527   538      1
   563   528   529      1
   564   528   539      1
   565   529   540      1
   566   529   541      1
   567   529   545      1
   568   542   543      1
   569   542   547      1
   570   542   549      1
   571   542   550      1
   572   543   544      1
   573   543   551      1
   574   543   552      1
   575   544   545      1
   576   544   546      1
   577   544   553      1
   578   545   554      1
   579   545   555      1
   580   546   547      1
   581   546   556      1
   582   546   557      1
   583   547   548      1
   584   547   558      1
   585   548   559      1
   586   548   560      1
   587   548   564      1
   588   561   562      1
   589   561   566      1
   590   561   568      1
   591   561   569      1
   592   562   563      1
   593   562   570      1
   594   562   571      1
   595   563   564      1
   596   563   565      1
   597   563   572      1
   598   564   573      1
   599   564   574      1
   600   565   566      1
   601   565   575      1
   602   565   576      1
   603   566   567      1
   604   566   577      1
   605   567   578      1
   606   567   579      1
   607   567   583      1
   608   580   581      1
   609   580   585      1
   610   580   587      1
   611   580   588      1
   612   581   582      1
   613   581   589      1
   614   581   590      1
   615   582   583      1
   616   582   584      1
   617   582   591      1
   618   583   592      1
   619   583   593      1
   620   584   585      1
   621   584   594      1
   622   584   595      1
   623   585   586      1
   624   585   596      1
   625   586   597      1
   626   586   598      1
   627   586   602      1
   628   599   600      1
   629   599   604      1
   630   599   606      1
   631   599   607      1
   632   600   601      1
   633   600   608      1
   634   600   609      1
   635   601   602      1
   636   601   603      1
   637   601   610      1
   638   602   611      1
   639   602   612      1
   640   603   604      1
   641   603   613      1
   642   603   614      1
   643   604   605      1
   644   604   615      1
   645   605   616      1
   646   605   617      1
   647   605   621      1
   648   618   619      1
   649   618   623      1
   650   618   625      1
   651   618   626      1
   652   619   620      1
   653   619   627      1
   654   619   628      1
   655   620   621      1
   656   620   622      1
   657   620   629      1
   658   621   630      1
   659   621   631      1
   660   622   623      1
   661   622   632      1
   662   622   633      1
   663   623   624      1
   664   623   634      1
   665   624   635      1
   666   624   636      1
   667   624   640      1
   668   637   638      1
   669   637   642      1
   670   637   644      1
   671   637   645      1
   672   638   639      1
   673   638   646      1
   674   638   647      1
   675   639   640      1
   676   639   641      1
   677   639   648      1
   678   640   649      1
   679   640   650      1
   680   641   642      1
   681   641   651      1
   682   641   652      1
   683   642   643      1
   684   642   653      1
   685   643   654      1
   686   643   655      1
   687   643   659      1
   688   656   657      1
   689   656   661      1
   690   656   663      1
   691   656   664      1
   692   657   658      1
   693   657   665      1
   694   657   666      1
   695   658   659      1
   696   658   660      1
   697   658   667      1
   698   659   668      1
   699   659   669      1
   700   660   661      1
   701   660   670      1
   702   660   671      1
   703   661   662      1
   704   661   672      1
   705   662   673      1
   706   662   674      1
   707   662   675      1
   708   675   676      1
   709   675   677      1
   710   675   678      1
   711   676   679      1
   712   676   680      1
   713   676   684      1
   714   681   682      1
   715   681   686      1
   716   681   688      1
   717   681   689      1
   718   682   683      1
   719   682   690      1
   720   682   691      1
   721   683   684      1
   722   683   685      1
   723   683   692      1
   724   684   693      1
   725   684   694      1
   726   685   686      1
   727   685   695      1
   728   685   696      1
   729   686   687      1
   730   686   697      1
   731   687   698      1
   732   687   699      1
   733   687   703      1
   734   700   701      1
   735   700   705      1
   736   700   707      1
   737   700   708      1
   738   701   702      1
   739   701   709      1
   740   701   710      1
   741   702   703      1
   742   702   704      1
   743   702   711      1
   744   703   712      1
   745   703   713      1
   746   704   705      1
   747   704   714      1
   748   704   715      1
   749   705   706      1
   750   705   716      1
   751   706   717      1
   752   706   718      1
   753   706   722      1
   754   719   720      1
   755   719   724      1
   756   719   726      1
   757   719   727      1
   758   720   721      1
   759   720   728      1
   760   720   729      1
   761   721   722      1
   762   721   723      1
   763   721   730      1
   764   722   731      1
   765   722   732      1
   766   723   724      1
   767   723   733      1
   768   723   734      1
   769   724   725      1
   770   724   735      1
   771   725   736      1
   772   725   737      1
   773   725   741      1
   774   738   739      1
   775   738   743      1
   776   738   745      1
   777   738   746      1
   778   739   740      1
   779   739   747      1
   780   739   748      1
   781   740   741      1
   782   740   742      1
   783   740   749      1
   784   741   750      1
   785   741   751      1
   786   742   743      1
   787   742   752      1
   788   742   753      1
   789   743   744      1
   790   743   754      1
   791   744   755      1
   792   744   756      1
   793   744   760      1
   794   757   758      1
   795   757   762      1
   796   757   764      1
   797   757   765      1
   798   758   759      1
   799   758   766      1
   800   758   767      1
   801   759   760      1
   802   759   761      1
   803   759   768      1
   804   760   769      1
   805   760   770      1
   806   761   762      1
   807   761   771      1
   808   761   772      1
   809   762   763      1
   810   762   773      1
   811   763   774      1
   812   763   775      1
   813   763   779      1
   814   776   777      1
   815   776   781      1
   816   776   783      1
   817   776   784      1
   818   777   778      1
   819   777   785      1
   820   777   786      1
   821   778   779      1
   822   778   780      1
   823   778   787      1
   824   779   788      1
   825   779   789      1
   826   780   781      1
   827   780   790      1
   828   780   791      1
   829   781   782      1
   830   781   792      1
   831   782   793      1
   832   782   794      1
   833   782   795      1
   834   795   796      1
   835   795   797      1
   836   795   798      1
   837   796   799      1
   838   796   800      1
   839   796   804      1
   840   801   802      1
   841   801   806      1
   842   801   808      1
   843   801   809      1
   844   802   803      1
   845   802   810      1
   846   802   811      1
   847   803   804      1
   848   803   805      1
   849   803   812      1
   850   804   813      1
   851   804   814      1
   852   805   806      1
   853   805   815      1
   854   805   816      1
   855   806   807      1
   856   806   817      1
   857   807   818      1
   858   807   819      1
   859   807   823      1
   860   820   821      1
   861   820   825      1
   862   820   827      1
   863   820   828      1
   864   821   822      1
   865   821   829      1
   866   821   830      1
   867   822   823      1
   868   822   824      1
   869   822   831      1
   870   823   832      1
   871   823   833      1
   872   824   825      1
   873   824   834      1
   874   824   835      1
   875   825   826      1
   876   825   836      1
   877   826   837      1
   878   826   838      1
   879   826   839      1
   880   839   840      1
   881   839   841      1
   882   839   842      1
   883   840   843      1
   884   840   844      1
   885   840   848      1
   886   845   846      1
   887   845   850      1
   888   845   852      1
   889   845   853      1
   890   846   847      1
   891   846   854      1
   892   846   855      1
   893   847   848      1
   894   847   849      1
   895   847   856      1
   896   848   857      1
   897   848   858      1
   898   849   850      1
   899   849   859      1
   900   849   860      1
   901   850   851      1
   902   850   861      1
   903   851   862      1
   904   851   863      1
   905   851   867      1
   906   864   865      1
   907   864   869      1
   908   864   871      1
   909   864   872      1
   910   865   866      1
   911   865   873      1
   912   865   874      1
   913   866   867      1
   914   866   868      1
   915   866   875      1
   916   867   876      1
   917   867   877      1
   918   868   869      1
   919   868   878      1
   920   868   879      1
   921   869   870      1
   922   869   880      1
   923   870   881      1
   924   870   882      1
   925   870   883      1
   926   883   884      1
   927   883   885      1
   928   883   886      1
   929   884   887      1
   930   884   888      1
   931   884   892      1
   932   889   890      1
   933   889   894      1
   934   889   896      1
   935   889   897      1
   936   890   891      1
   937   890   898      1
   938   890   899      1
   939   891   892      1
   940   891   893      1
   941   891   900      1
   942   892   901      1
   943   892   902      1
   944   893   894      1
   945   893   903      1
   946   893   904      1
   947   894   895      1
   948   894   905      1
   949   895   906      1
   950   895   907      1
   951   895   908      1
   952   908   909      1
   953   908   910      1
   954   908   911      1
   955   909   912      1
   956   909   913      1
   957   909   917      1
   958   914   915      1
   959   914   919      1
   960   914   921      1
   961   914   922      1
   962   915   916      1
   963   915   923      1
   964   915   924      1
   965   916   917      1
   966   916   918      1
   967   916   925      1
   968   917   926      1
   969   917   927      1
   970   918   919      1
   971   918   928      1
   972   918   929      1
   973   919   920      1
   974   919   930      1
   975   920   931      1
   976   920   932      1
   977   920   936      1
   978   933   934      1
   979   933   938      1
   980   933   940      1
   981   933   941      1
   982   934   935      1
   983   934   942      1
   984   934   943      1
   985   935   936      1
   986   935   937      1
   987   935   944      1
   988   936   945      1
   989   936   946      1
   990   937   938      1
   991   937   947      1
   992   937   948      1
   993   938   939      1
   994   938   949      1
   995   939   950      1
   996   939   951      1
   997   939   955      1
   998   952   953      1
   999   952   957      1
  1000   952   959      1
  1001   952   960      1
  1002   953   954      1
  1003   953   961      1
  1004   953   962      1
  1005   954   955      1
  1006   954   956      1
  1007   954   963      1
  1008   955   964      1
  1009   955   965      1
  1010   956   957      1
  1011   956   966      1
  1012   956   967      1
  1013   957   958      1
  1014   957   968      1
  1015   958   969      1
  1016   958   970      1
  1017   958   971      1
  1018   971   972      1
  1019   971   973      1
  1020   971   974      1
  1021   972   975      1
  1022   972   976      1
  1023   972   980      1
  1024   977   978      1
  1025   977   982      1
  1026   977   984      1
  1027   977   985      1
  1028   978   979      1
  1029   978   986      1
  1030   978   987      1
  1031   979   980      1
  1032   979   981      1
  1033   979   988      1
  1034   980   989      1
  1035   980   990      1
  1036   981   982      1
  1037   981   991      1
  1038   981   992      1
  1039   982   983      1
  1040   982   993      1
  1041   983   994      1
  1042   983   995      1
  1043   983   999      1
  1044   996   997      1
  1045   996  1001      1
  1046   996  1003      1
  1047   996  1004      1
  1048   997   998      1
  1049   997  1005      1
  1050   997  1006      1
  1051   998   999      1
  1052   998  1000      1
  1053   998  1007      1
  1054   999  1008      1
  1055   999  1009      1
  1056  1000  1001      1
  1057  1000  1010      1
  1058  1000  1011      1
  1059  1001  1002      1
  1060  1001  1012      1
  1061  1002  1013      1
  1062  1002  1014      1
  1063  1002  1015      1
  1064  1015  1016      1
  1065  1015  1017      1
  1066  1015  1018      1
  1067  1016  1019      1
  1068  1016  1020      1
  1069  1016  1024      1
  1070  1021  1022      1
  1071  1021  1026      1
  1072  1021  1028      1
  1073  1021  1029      1
  1074  1022  1023      1
  1075  1022  1030      1
  1076  1022  1031      1
  1077  1023  1024      1
  1078  1023  1025      1
  1079  1023  1032      1
  1080  1024  1033      1
  1081  1024  1034      1
  1082  1025  1026      1
  1083  1025  1035      1
  1084  1025  1036      1
  1085  1026  1027      1
  1086  1026  1037      1
  1087  1027  1038      1
  1088  1027  1039      1
  1089  1027  1043      1
  1090  1040  1041      1
  1091  1040  1045      1
  1092  1040  1047      1
  1093  1040  1048      1
  1094  1041  1042      1
  1095  1041  1049      1
  1096  1041  1050      1
  1097  1042  1043      1
  1098  1042  1044      1
  1099  1042  1051      1
  1100  1043  1052      1
  1101  1043  1053      1
  1102  1044  1045      1
  1103  1044  1054      1
  1104  1044  1055      1
  1105  1045  1046      1
  1106  1045  1056      1
  1107  1046  1057      1
  1108  1046  1058      1
  1109  1046  1059      1
  1110  1059  1060      1
  1111  1059  1061      1
  1112  1059  1062      1
  1113  1060  1063      1
  1114  1060  1064      1
  1115  1060  1068      1
  1116  1065  1066      1
  1117  1065  1070      1
  1118  1065  1072      1
  1119  1065  1073      1
  1120  1066  1067      1
  1121  1066  1074      1
  1122  1066  1075      1
  1123  1067  1068      1
  1124  1067  1069      1
  1125  1067  1076      1
  1126  1068  1077      1
  1127  1068  1078      1
  1128  1069  1070      1
  1129  1069  1079      1
  1130  1069  1080      1
  1131  1070  1071      1
  1132  1070  1081      1
  1133  1071  1082      1
  1134  1071  1083      1
  1135  1071  1087      1
  1136  1084  1085      1
  1137  1084  1089      1
  1138  1084  1091      1
  1139  1084  1092      1
  1140  1085  1086      1
  1141  1085  1093      1
  1142  1085  1094      1
  1143  1086  1087      1
  1144  1086  1088      1
  1145  1086  1095      1
  1146  1087  1096      1
  1147  1087  1097      1
  1148  1088  1089      1
  1149  1088  1098      1
  1150  1088  1099      1
  1151  1089  1090      1
  1152  1089  1100      1
  1153  1090  1101      1
  1154  1090  1102      1
  1155  1090  1103      1
  1156  1103  1104      1
  1157  1103  1105      1
  1158  1103  1106      1
  1159  1104  1107      1
  1160  1104  1108      1
  1161  1104  1109      1
  1162  1109  1110      1
  1163  1109  1111      1
  1164  1109  1112      1
  1165  1110  1113      1
  1166  1110  1114      1
  1167  1110  1118      1
  1168  1115  1116      1
  1169  1115  1120      1
  1170  1115  1122      1
  1171  1115  1123      1
  1172  1116  1117      1
  1173  1116  1124      1
  1174  1116  1125      1
  1175  1117  1118      1
  1176  1117  1119      1
  1177  1117  1126      1
  1178  1118  1127      1
  1179  1118  1128      1
  1180  1119  1120      1
  1181  1119  1129      1
  1182  1119  1130      1
  1183  1120  1121      1
  1184  1120  1131      1
  1185  1121  1132      1
  1186  1121  1133      1
  1187  1121  1137      1
  1188  1134  1135      1
  1189  1134  1139      1
  1190  1134  1141      1
  1191  1134  1142      1
  1192  1135  1136      1
  1193  1135  1143      1
  1194  1135  1144      1
  1195  1136  1137      1
  1196  1136  1138      1
  1197  1136  1145      1
  1198  1137  1146      1
  1199  1137  1147      1
  1200  1138  1139      1
  1201  1138  1148      1
  1202  1138  1149      1
  1203  1139  1140      1
  1204  1139  1150      1
  1205  1140  1151      1
  1206  1140  1152      1
  1207  1140  1153      1
  1208  1153  1154      1
  1209  1153  1155      1
  1210  1153  1156      1
  1211  1154  1157      1
  1212  1154  1158      1
  1213  1154  1162      1
  1214  1159  1160      1
  1215  1159  1164      1
  1216  1159  1166      1
  1217  1159  1167      1
  1218  1160  1161      1
  1219  1160  1168      1
  1220  1160  1169      1
  1221  1161  1162      1
  1222  1161  1163      1
  1223  1161  1170      1
  1224  1162  1171      1
  1225  1162  1172      1
  1226  1163  1164      1
  1227  1163  1173      1
  1228  1163  1174      1
  1229  1164  1165      1
  1230  1164  1175      1
  1231  1165  1176      1
  1232  1165  1177      1
  1233  1165  1181      1
  1234  1178  1179      1
  1235  1178  1183      1
  1236  1178  1185      1
  1237  1178  1186      1
  1238  1179  1180      1
  1239  1179  1187      1
  1240  1179  1188      1
  1241  1180  1181      1
  1242  1180  1182      1
  1243  1180  1189      1
  1244  1181  1190      1
  1245  1181  1191      1
  1246  1182  1183      1
  1247  1182  1192      1
  1248  1182  1193      1
  1249  1183  1184      1
  1250  1183  1194      1
  1251  1184  1195      1
  1252  1184  1196      1
  1253  1184  1200      1
  1254  1197  1198      1
  1255  1197  1202      1
  1256  1197  1204      1
  1257  1197  1205      1
  1258  1198  1199      1
  1259  1198  1206      1
  1260  1198  1207      1
  1261  1199  1200      1
  1262  1199  1201      1
  1263  1199  1208      1
  1264  1200  1209      1
  1265  1200  1210      1
  1266  1201  1202      1
  1267  1201  1211      1
  1268  1201  1212      1
  1269  1202  1203      1
  1270  1202  1213      1
  1271  1203  1214      1
  1272  1203  1215      1
  1273  1203  1219      1
  1274  1216  1217      1
  1275  1216  1221      1
  1276  1216  1223      1
  1277  1216  1224      1
  1278  1217  1218      1
  1279  1217  1225      1
  1280  1217  1226      1
  1281  1218  1219      1
  1282  1218  1220      1
  1283  1218  1227      1
  1284  1219  1228      1
  1285  1219  1229      1
  1286  1220  1221      1
  1287  1220  1230      1
  1288  1220  1231      1
  1289  1221  1222      1
  1290  1221  1232      1
  1291  1222  1233      1
  1292  1222  1234      1
  1293  1222  1235      1
  1294  1235  1236      1
  1295  1235  1237      1
  1296  1235  1238      1
  1297  1236  1239      1
  1298  1236  1240      1
  1299  1236  1241      H
