###
### Created by PolyChef-cpp17 on Wed Feb 26 21:14:12 2025
###

@<TRIPOS>MOLECULE
NO_INFO
701 733 1 0 0
SMALL
USER_CHARGES


@<TRIPOS>ATOM
      1 C         138.5433  151.1822  250.4768 C.3       0        0    0.0000
      2 C         138.9755  150.0167  249.5980 C.3       0        0    0.0000
      3 C         140.4800  150.2542  249.4310 C.3       0        0    0.0000
      4 C         141.1429  149.4884  248.2820 C.3       0        0    0.0000
      5 C         140.6471  151.7859  249.3923 C.3       0        0    0.0000
      6 C         139.3021  152.3672  249.8705 C.3       0        0    0.0000
      7 C         139.3989  153.6104  250.7599 C.3       0        0    0.0000
      8 H         137.4595  151.3322  250.4529 H         0        0    0.0000
      9 H         138.8376  150.9919  251.5148 H         0        0    0.0000
     10 H         138.7611  149.0507  250.0655 H         0        0    0.0000
     11 H         138.4432  150.0574  248.6413 H         0        0    0.0000
     12 H         140.9624  149.9071  250.3572 H         0        0    0.0000
     13 H         140.4251  149.3847  247.4597 H         0        0    0.0000
     14 H         141.9821  150.0786  247.8951 H         0        0    0.0000
     15 H         140.8736  152.1643  248.3897 H         0        0    0.0000
     16 H         141.4881  152.0786  250.0301 H         0        0    0.0000
     17 H         138.7505  152.6709  248.9679 H         0        0    0.0000
     18 H         138.4348  154.1325  250.7516 H         0        0    0.0000
     19 H         139.5787  153.2973  251.7952 H         0        0    0.0000
     20 C         143.0271  154.8481  253.0609 C.3       1        0    0.0000
     21 C         141.6389  154.3535  252.6471 C.3       1        0    0.0000
     22 C         141.1374  155.3137  251.5536 C.3       1        0    0.0000
     23 C         140.5149  154.6134  250.3394 C.3       1        0    0.0000
     24 C         142.3696  156.1439  251.1800 C.3       1        0    0.0000
     25 C         143.1657  156.2612  252.4841 C.3       1        0    0.0000
     26 C         142.6080  157.3531  253.4167 C.3       1        0    0.0000
     27 H         143.1714  154.7972  254.1443 H         1        0    0.0000
     28 H         143.7842  154.1975  252.6047 H         1        0    0.0000
     29 H         141.6975  153.3139  252.3064 H         1        0    0.0000
     30 H         140.9551  154.3755  253.5037 H         1        0    0.0000
     31 H         140.3942  155.9886  252.0016 H         1        0    0.0000
     32 H         140.0745  155.3647  249.6732 H         1        0    0.0000
     33 H         141.2859  154.0899  249.7624 H         1        0    0.0000
     34 H         142.0962  157.1172  250.7597 H         1        0    0.0000
     35 H         142.9725  155.6163  250.4295 H         1        0    0.0000
     36 H         144.2168  156.4782  252.2553 H         1        0    0.0000
     37 H         143.1248  157.3503  254.3828 H         1        0    0.0000
     38 H         141.5498  157.1517  253.6209 H         1        0    0.0000
     39 C         142.7171  158.7685  252.7788 C.3       2        0    0.0000
     40 C         141.5583  159.1180  251.8341 C.3       2        0    0.0000
     41 H         142.7116  159.4900  253.6058 H         2        0    0.0000
     42 H         143.6863  158.8740  252.2773 H         2        0    0.0000
     43 H         140.6738  158.5052  252.0441 H         2        0    0.0000
     44 H         141.2695  160.1602  252.0207 H         2        0    0.0000
     45 C         145.1321  160.6560  251.1975 C.3       3        0    0.0000
     46 C         143.6123  160.8030  251.0912 C.3       3        0    0.0000
     47 C         143.1563  159.8581  249.9650 C.3       3        0    0.0000
     48 C         141.9234  159.0149  250.3127 C.3       3        0    0.0000
     49 C         144.3876  158.9964  249.6675 C.3       3        0    0.0000
     50 C         145.5795  159.9237  249.9277 C.3       3        0    0.0000
     51 C         145.8540  160.8733  248.7461 C.3       3        0    0.0000
     52 H         145.6253  161.6210  251.3477 H         3        0    0.0000
     53 H         145.3666  160.0355  252.0720 H         3        0    0.0000
     54 H         143.1451  160.5730  252.0551 H         3        0    0.0000
     55 H         143.3456  161.8365  250.8406 H         3        0    0.0000
     56 H         142.9401  160.4636  249.0732 H         3        0    0.0000
     57 H         141.0665  159.3649  249.7247 H         3        0    0.0000
     58 H         142.0879  157.9659  250.0409 H         3        0    0.0000
     59 H         144.3731  158.5985  248.6477 H         3        0    0.0000
     60 H         144.4315  158.1424  250.3559 H         3        0    0.0000
     61 H         146.4757  159.3233  250.1295 H         3        0    0.0000
     62 H         144.9358  161.0853  248.1873 H         3        0    0.0000
     63 H         146.5487  160.3928  248.0470 H         3        0    0.0000
     64 C         146.4907  162.2128  249.2175 C.3       4        0    0.0000
     65 C         145.9547  163.4505  248.4839 C.3       4        0    0.0000
     66 H         146.2523  162.3191  250.2835 H         4        0    0.0000
     67 H         147.5827  162.1483  249.1455 H         4        0    0.0000
     68 H         146.3917  163.5411  247.4825 H         4        0    0.0000
     69 H         144.8737  163.3218  248.3439 H         4        0    0.0000
     70 C         143.5877  166.7686  249.8141 C.3       5        0    0.0000
     71 C         143.9988  165.9493  248.5877 C.3       5        0    0.0000
     72 C         145.5297  165.9901  248.5280 C.3       5        0    0.0000
     73 C         146.1526  164.7926  249.2701 C.3       5        0    0.0000
     74 C         145.8392  167.3560  249.1539 C.3       5        0    0.0000
     75 C         144.8584  167.4690  250.3236 C.3       5        0    0.0000
     76 C         144.6479  168.9203  250.7700 C.3       5        0    0.0000
     77 H         142.8005  167.4791  249.5374 H         5        0    0.0000
     78 H         143.1769  166.1164  250.5932 H         5        0    0.0000
     79 H         143.5885  166.4278  247.6893 H         5        0    0.0000
     80 H         143.5950  164.9323  248.6214 H         5        0    0.0000
     81 H         145.8617  165.9725  247.4820 H         5        0    0.0000
     82 H         145.6753  164.6895  250.2521 H         5        0    0.0000
     83 H         147.2198  164.9525  249.4569 H         5        0    0.0000
     84 H         145.6445  168.1459  248.4166 H         5        0    0.0000
     85 H         146.8778  167.4625  249.4811 H         5        0    0.0000
     86 H         145.2577  166.8899  251.1681 H         5        0    0.0000
     87 H         145.0877  169.0820  251.7610 H         5        0    0.0000
     88 H         143.5739  169.1207  250.8623 H         5        0    0.0000
     89 C         142.1594  171.5522  248.3476 C.3       6        0    0.0000
     90 C         142.8349  170.4769  249.2025 C.3       6        0    0.0000
     91 C         144.2655  170.3359  248.6660 C.3       6        0    0.0000
     92 C         145.2595  169.9313  249.7581 C.3       6        0    0.0000
     93 C         144.5359  171.7043  248.0316 C.3       6        0    0.0000
     94 C         143.2098  172.0163  247.3300 C.3       6        0    0.0000
     95 C         143.0276  173.4839  246.9336 C.3       6        0    0.0000
     96 H         141.2693  171.1615  247.8428 H         6        0    0.0000
     97 H         141.8319  172.3777  248.9910 H         6        0    0.0000
     98 H         142.2981  169.5239  249.1447 H         6        0    0.0000
     99 H         142.8296  170.7895  250.2536 H         6        0    0.0000
    100 H         144.2599  169.5758  247.8712 H         6        0    0.0000
    101 H         145.5774  170.8255  250.3075 H         6        0    0.0000
    102 H         146.1615  169.4985  249.3099 H         6        0    0.0000
    103 H         145.3731  171.6703  247.3273 H         6        0    0.0000
    104 H         144.7606  172.4556  248.7990 H         6        0    0.0000
    105 H         143.1269  171.3792  246.4374 H         6        0    0.0000
    106 H         143.8912  173.8315  246.3545 H         6        0    0.0000
    107 H         142.9852  174.1009  247.8391 H         6        0    0.0000
    108 C         141.7282  173.7181  246.1151 C.3       7        0    0.0000
    109 C         141.4831  175.1867  245.7404 C.3       7        0    0.0000
    110 H         141.8307  173.1423  245.1864 H         7        0    0.0000
    111 H         140.8716  173.2953  246.6530 H         7        0    0.0000
    112 H         142.1735  175.8540  246.2696 H         7        0    0.0000
    113 H         141.6921  175.3043  244.6694 H         7        0    0.0000
    114 C         140.0072  175.6647  245.9686 C.3       8        0    0.0000
    115 C         139.7662  177.1381  245.6104 C.3       8        0    0.0000
    116 H         139.7939  175.5349  247.0374 H         8        0    0.0000
    117 H         139.3176  175.0050  245.4290 H         8        0    0.0000
    118 H         140.5042  177.4292  244.8519 H         8        0    0.0000
    119 H         138.7781  177.2821  245.1578 H         8        0    0.0000
    120 C         139.9437  178.1243  246.8165 C.3       9        0    0.0000
    121 C         139.4314  179.5452  246.5411 C.3       9        0    0.0000
    122 H         139.3654  177.7099  247.6523 H         9        0    0.0000
    123 H         140.9926  178.1332  247.1352 H         9        0    0.0000
    124 H         140.0656  180.2983  247.0233 H         9        0    0.0000
    125 H         139.4951  179.7267  245.4606 H         9        0    0.0000
    126 C         137.9352  179.7737  246.9510 C.3      10        0    0.0000
    127 C         137.4591  181.2246  246.7909 C.3      10        0    0.0000
    128 H         137.8524  179.5032  248.0114 H        10        0    0.0000
    129 H         137.2909  179.0792  246.3992 H        10        0    0.0000
    130 H         137.2414  181.6236  247.7899 H        10        0    0.0000
    131 H         138.2461  181.8580  246.3651 H        10        0    0.0000
    132 C         134.8085  184.9287  246.1054 C.3      11        0    0.0000
    133 C         135.5211  183.7534  246.7599 C.3      11        0    0.0000
    134 C         135.7973  182.8196  245.5770 C.3      11        0    0.0000
    135 C         136.1458  181.3748  245.9474 C.3      11        0    0.0000
    136 C         134.5903  182.9911  244.6342 C.3      11        0    0.0000
    137 C         133.8435  184.2441  245.1319 C.3      11        0    0.0000
    138 C         133.2639  185.1457  244.0377 C.3      11        0    0.0000
    139 H         134.2825  185.5477  246.8388 H        11        0    0.0000
    140 H         135.5374  185.5611  245.5868 H        11        0    0.0000
    141 H         136.4422  184.0628  247.2634 H        11        0    0.0000
    142 H         134.8646  183.2912  247.5054 H        11        0    0.0000
    143 H         136.6722  183.2260  245.0474 H        11        0    0.0000
    144 H         135.3129  180.9390  246.5119 H        11        0    0.0000
    145 H         136.2474  180.7839  245.0294 H        11        0    0.0000
    146 H         133.9125  182.1308  244.6495 H        11        0    0.0000
    147 H         134.9431  183.0879  243.6017 H        11        0    0.0000
    148 H         132.9896  183.8872  245.7274 H        11        0    0.0000
    149 H         132.4369  185.7311  244.4569 H        11        0    0.0000
    150 H         134.0299  185.8638  243.7219 H        11        0    0.0000
    151 C         131.5922  180.8315  243.3344 C.3      12        0    0.0000
    152 C         131.8473  182.2502  243.8502 C.3      12        0    0.0000
    153 C         132.9046  182.8622  242.9219 C.3      12        0    0.0000
    154 C         132.7487  184.3791  242.7826 C.3      12        0    0.0000
    155 C         132.7187  182.0789  241.6181 C.3      12        0    0.0000
    156 C         132.5060  180.6454  242.1160 C.3      12        0    0.0000
    157 C         131.9060  179.6922  241.0787 C.3      12        0    0.0000
    158 H         131.8057  180.0815  244.1036 H        12        0    0.0000
    159 H         130.5350  180.7264  243.0629 H        12        0    0.0000
    160 H         132.1943  182.2419  244.8891 H        12        0    0.0000
    161 H         130.9117  182.8216  243.8247 H        12        0    0.0000
    162 H         133.8977  182.6289  243.3327 H        12        0    0.0000
    163 H         131.6896  184.6222  242.6359 H        12        0    0.0000
    164 H         133.2810  184.7360  241.8931 H        12        0    0.0000
    165 H         133.5931  182.1593  240.9645 H        12        0    0.0000
    166 H         131.8409  182.4374  241.0661 H        12        0    0.0000
    167 H         133.4699  180.2497  242.4678 H        12        0    0.0000
    168 H         131.3925  180.2591  240.2934 H        12        0    0.0000
    169 H         131.1485  179.0628  241.5609 H        12        0    0.0000
    170 C         132.9771  178.7700  240.4343 C.3      13        0    0.0000
    171 C         132.5187  177.3165  240.2487 C.3      13        0    0.0000
    172 H         133.1987  179.1863  239.4433 H        13        0    0.0000
    173 H         133.9072  178.8242  241.0121 H        13        0    0.0000
    174 H         131.7715  177.0348  240.9999 H        13        0    0.0000
    175 H         132.0261  177.2370  239.2711 H        13        0    0.0000
    176 C         136.3842  175.7105  237.8232 C.3      14        0    0.0000
    177 C         134.9690  176.2432  238.0427 C.3      14        0    0.0000
    178 C         134.9182  176.7796  239.4838 C.3      14        0    0.0000
    179 C         133.6898  176.2738  240.2514 C.3      14        0    0.0000
    180 C         136.2602  176.3612  240.1043 C.3      14        0    0.0000
    181 C         137.2448  176.3281  238.9285 C.3      14        0    0.0000
    182 C         137.7892  177.7098  238.5226 C.3      14        0    0.0000
    183 H         136.3746  174.6192  237.9402 H        14        0    0.0000
    184 H         136.7526  175.9242  236.8150 H        14        0    0.0000
    185 H         134.2310  175.4558  237.8545 H        14        0    0.0000
    186 H         134.7574  177.0575  237.3397 H        14        0    0.0000
    187 H         134.8823  177.8770  239.4338 H        14        0    0.0000
    188 H         133.9613  176.0265  241.2843 H        14        0    0.0000
    189 H         133.3297  175.3472  239.7884 H        14        0    0.0000
    190 H         136.5707  177.0386  240.9057 H        14        0    0.0000
    191 H         136.1829  175.3549  240.5361 H        14        0    0.0000
    192 H         138.0857  175.6613  239.1580 H        14        0    0.0000
    193 H         137.1179  178.5123  238.8466 H        14        0    0.0000
    194 H         137.8433  177.7693  237.4288 H        14        0    0.0000
    195 C         139.2148  177.9650  239.0887 C.3      15        0    0.0000
    196 C         140.2374  178.4025  238.0303 C.3      15        0    0.0000
    197 H         139.1227  178.7719  239.8271 H        15        0    0.0000
    198 H         139.5597  177.0789  239.6344 H        15        0    0.0000
    199 H         139.7761  179.0462  237.2721 H        15        0    0.0000
    200 H         141.0063  179.0063  238.5289 H        15        0    0.0000
    201 C         138.3369  175.1940  238.8862 C.3      16        0    0.0000
    202 C         138.7036  176.1289  237.7347 C.3      16        0    0.0000
    203 C         140.1949  175.8972  237.4362 C.3      16        0    0.0000
    204 C         140.9799  177.2114  237.3312 C.3      16        0    0.0000
    205 C         140.6786  174.9671  238.5596 C.3      16        0    0.0000
    206 C         139.4455  174.1399  238.9446 C.3      16        0    0.0000
    207 C         139.1592  172.9577  238.0008 C.3      16        0    0.0000
    208 H         138.3342  175.7677  239.8219 H        16        0    0.0000
    209 H         137.3365  174.7663  238.7664 H        16        0    0.0000
    210 H         138.4781  177.1678  237.9995 H        16        0    0.0000
    211 H         138.1088  175.8869  236.8460 H        16        0    0.0000
    212 H         140.2677  175.3594  236.4803 H        16        0    0.0000
    213 H         141.1681  177.4597  236.2802 H        16        0    0.0000
    214 H         141.9598  177.0868  237.8074 H        16        0    0.0000
    215 H         141.5278  174.3521  238.2460 H        16        0    0.0000
    216 H         141.0019  175.5553  239.4283 H        16        0    0.0000
    217 H         139.5464  173.7663  239.9716 H        16        0    0.0000
    218 H         139.1251  173.2830  236.9555 H        16        0    0.0000
    219 H         138.1706  172.5427  238.2320 H        16        0    0.0000
    220 C         141.1394  170.8924  234.6211 C.3      17        0    0.0000
    221 C         140.3289  171.7290  235.6145 C.3      17        0    0.0000
    222 C         140.2798  170.9215  236.9182 C.3      17        0    0.0000
    223 C         140.2067  171.8192  238.1565 C.3      17        0    0.0000
    224 C         141.5368  170.0492  236.8351 C.3      17        0    0.0000
    225 C         141.5462  169.6141  235.3659 C.3      17        0    0.0000
    226 C         142.8843  169.0551  234.8746 C.3      17        0    0.0000
    227 H         140.5541  170.6560  233.7260 H        17        0    0.0000
    228 H         142.0170  171.4629  234.2942 H        17        0    0.0000
    229 H         139.3198  171.9300  235.2388 H        17        0    0.0000
    230 H         140.8199  172.6985  235.7612 H        17        0    0.0000
    231 H         139.3961  170.2676  236.8831 H        17        0    0.0000
    232 H         141.1897  172.2717  238.3341 H        17        0    0.0000
    233 H         139.9682  171.2229  239.0450 H        17        0    0.0000
    234 H         141.4860  169.1928  237.5150 H        17        0    0.0000
    235 H         142.4351  170.6304  237.0785 H        17        0    0.0000
    236 H         140.7554  168.8645  235.2171 H        17        0    0.0000
    237 H         143.6293  169.8565  234.8066 H        17        0    0.0000
    238 H         142.7589  168.6534  233.8620 H        17        0    0.0000
    239 C         146.2117  165.4766  235.9189 C.3      18        0    0.0000
    240 C         145.7446  166.8949  236.2551 C.3      18        0    0.0000
    241 C         144.6818  167.2685  235.2063 C.3      18        0    0.0000
    242 C         143.4244  167.9235  235.7914 C.3      18        0    0.0000
    243 C         144.3730  165.9504  234.4891 C.3      18        0    0.0000
    244 C         145.6994  165.1829  234.5046 C.3      18        0    0.0000
    245 C         146.6645  165.6554  233.4008 C.3      18        0    0.0000
    246 H         147.2950  165.3680  236.0275 H        18        0    0.0000
    247 H         145.7460  164.7752  236.6230 H        18        0    0.0000
    248 H         145.3613  166.9300  237.2808 H        18        0    0.0000
    249 H         146.5851  167.5966  236.1994 H        18        0    0.0000
    250 H         145.1407  167.9534  234.4790 H        18        0    0.0000
    251 H         142.6405  167.1655  235.9072 H        18        0    0.0000
    252 H         143.6306  168.3226  236.7912 H        18        0    0.0000
    253 H         143.9885  166.1144  233.4772 H        18        0    0.0000
    254 H         143.6151  165.3821  235.0437 H        18        0    0.0000
    255 H         145.5048  164.1096  234.3848 H        18        0    0.0000
    256 H         147.1837  166.5740  233.6957 H        18        0    0.0000
    257 H         146.0939  165.8890  232.4941 H        18        0    0.0000
    258 C         147.4123  161.8037  230.5808 C.3      19        0    0.0000
    259 C         146.9676  163.2142  230.9754 C.3      19        0    0.0000
    260 C         147.0487  163.2879  232.5107 C.3      19        0    0.0000
    261 C         147.7137  164.5626  233.0445 C.3      19        0    0.0000
    262 C         147.8089  162.0204  232.9143 C.3      19        0    0.0000
    263 C         147.3990  160.9760  231.8705 C.3      19        0    0.0000
    264 C         146.0245  160.3500  232.1740 C.3      19        0    0.0000
    265 H         146.7892  161.3884  229.7830 H        19        0    0.0000
    266 H         148.4387  161.8520  230.1950 H        19        0    0.0000
    267 H         147.5998  163.9590  230.4795 H        19        0    0.0000
    268 H         145.9370  163.3948  230.6481 H        19        0    0.0000
    269 H         146.0284  163.2168  232.9138 H        19        0    0.0000
    270 H         148.2865  164.3224  233.9482 H        19        0    0.0000
    271 H         148.4270  164.9580  232.3121 H        19        0    0.0000
    272 H         147.5767  161.7117  233.9387 H        19        0    0.0000
    273 H         148.8919  162.1898  232.8565 H        19        0    0.0000
    274 H         148.1582  160.1849  231.8238 H        19        0    0.0000
    275 H         145.4318  160.2345  231.2599 H        19        0    0.0000
    276 H         145.4601  161.0157  232.8377 H        19        0    0.0000
    277 C         146.1616  158.9682  232.8767 C.3      20        0    0.0000
    278 C         145.0603  157.9660  232.5025 C.3      20        0    0.0000
    279 H         147.1256  158.5476  232.5630 H        20        0    0.0000
    280 H         146.2199  159.1100  233.9623 H        20        0    0.0000
    281 H         144.3740  158.3870  231.7584 H        20        0    0.0000
    282 H         145.5369  157.0960  232.0329 H        20        0    0.0000
    283 C         140.8610  156.0440  234.0573 C.3      21        0    0.0000
    284 C         141.7630  157.0151  233.2970 C.3      21        0    0.0000
    285 C         143.1767  156.4082  233.3129 C.3      21        0    0.0000
    286 C         144.2447  157.4283  233.7290 C.3      21        0    0.0000
    287 C         143.0710  155.1950  234.2496 C.3      21        0    0.0000
    288 C         141.6204  154.7158  234.1118 C.3      21        0    0.0000
    289 C         141.3562  153.8559  232.8624 C.3      21        0    0.0000
    290 H         140.7164  156.4195  235.0783 H        21        0    0.0000
    291 H         139.8700  155.9594  233.6005 H        21        0    0.0000
    292 H         141.7213  158.0108  233.7518 H        21        0    0.0000
    293 H         141.4194  157.1195  232.2611 H        21        0    0.0000
    294 H         143.4007  156.0492  232.2984 H        21        0    0.0000
    295 H         144.9292  156.9856  234.4619 H        21        0    0.0000
    296 H         143.7598  158.2792  234.2225 H        21        0    0.0000
    297 H         143.8044  154.4211  234.0031 H        21        0    0.0000
    298 H         143.2513  155.4994  235.2889 H        21        0    0.0000
    299 H         141.3206  154.1552  235.0064 H        21        0    0.0000
    300 H         141.5764  154.4109  231.9441 H        21        0    0.0000
    301 H         140.2917  153.5945  232.8226 H        21        0    0.0000
    302 C         140.4179  149.7767  231.2116 C.3      22        0    0.0000
    303 C         140.4414  151.2792  231.4883 C.3      22        0    0.0000
    304 C         141.9203  151.6782  231.6317 C.3      22        0    0.0000
    305 C         142.1752  152.5342  232.8793 C.3      22        0    0.0000
    306 C         142.6875  150.3470  231.6184 C.3      22        0    0.0000
    307 C         141.8327  149.4081  230.7578 C.3      22        0    0.0000
    308 C         142.0143  149.6024  229.2413 C.3      22        0    0.0000
    309 H         140.1886  149.2475  232.1453 H        22        0    0.0000
    310 H         139.6442  149.5037  230.4871 H        22        0    0.0000
    311 H         139.8483  151.5128  232.3793 H        22        0    0.0000
    312 H         139.9927  151.8259  230.6505 H        22        0    0.0000
    313 H         142.2021  152.2540  230.7388 H        22        0    0.0000
    314 H         143.2431  152.7630  232.9726 H        22        0    0.0000
    315 H         141.8943  151.9642  233.7731 H        22        0    0.0000
    316 H         143.7081  150.4653  231.2415 H        22        0    0.0000
    317 H         142.7578  149.9378  232.6347 H        22        0    0.0000
    318 H         142.0428  148.3623  231.0159 H        22        0    0.0000
    319 H         142.1483  150.6599  228.9894 H        22        0    0.0000
    320 H         141.1063  149.2698  228.7236 H        22        0    0.0000
    321 C         144.2856  148.4923  232.2272 C.3      23        0    0.0000
    322 C         144.1360  149.4103  231.0116 C.3      23        0    0.0000
    323 C         144.2691  148.5161  229.7658 C.3      23        0    0.0000
    324 C         143.2120  148.7805  228.6866 C.3      23        0    0.0000
    325 C         144.1998  147.0866  230.3125 C.3      23        0    0.0000
    326 C         144.8523  147.1709  231.6966 C.3      23        0    0.0000
    327 C         146.3909  147.1583  231.6225 C.3      23        0    0.0000
    328 H         144.8954  148.9510  233.0114 H        23        0    0.0000
    329 H         143.2922  148.3108  232.6572 H        23        0    0.0000
    330 H         143.1769  149.9380  231.0562 H        23        0    0.0000
    331 H         144.9247  150.1717  231.0091 H        23        0    0.0000
    332 H         145.2696  148.6693  229.3366 H        23        0    0.0000
    333 H         143.6673  149.3421  227.8622 H        23        0    0.0000
    334 H         142.8501  147.8355  228.2654 H        23        0    0.0000
    335 H         144.6972  146.3700  229.6509 H        23        0    0.0000
    336 H         143.1546  146.7688  230.4196 H        23        0    0.0000
    337 H         144.5096  146.3328  232.3166 H        23        0    0.0000
    338 H         146.8358  147.2280  232.6213 H        23        0    0.0000
    339 H         146.7353  148.0333  231.0586 H        23        0    0.0000
    340 C         144.1544  143.2825  231.0253 C.3      24        0    0.0000
    341 C         144.8049  144.5472  231.5683 C.3      24        0    0.0000
    342 C         145.8326  144.8945  230.4863 C.3      24        0    0.0000
    343 C         146.9244  145.8821  230.9093 C.3      24        0    0.0000
    344 C         146.3340  143.5383  229.9526 C.3      24        0    0.0000
    345 C         145.3499  142.4838  230.4956 C.3      24        0    0.0000
    346 C         145.0043  141.3447  229.5315 C.3      24        0    0.0000
    347 H         143.6077  142.7383  231.8015 H        24        0    0.0000
    348 H         143.4473  143.5424  230.2298 H        24        0    0.0000
    349 H         144.0764  145.3503  231.7165 H        24        0    0.0000
    350 H         145.2782  144.3348  232.5333 H        24        0    0.0000
    351 H         145.2802  145.3731  229.6636 H        24        0    0.0000
    352 H         147.6281  145.3728  231.5784 H        24        0    0.0000
    353 H         147.4953  146.1861  230.0240 H        24        0    0.0000
    354 H         147.3490  143.2982  230.2869 H        24        0    0.0000
    355 H         146.3677  143.5656  228.8581 H        24        0    0.0000
    356 H         145.8343  142.0189  231.3675 H        24        0    0.0000
    357 H         143.9935  140.9822  229.7533 H        24        0    0.0000
    358 H         144.9808  141.7364  228.5077 H        24        0    0.0000
    359 C         145.2214  136.7077  228.2189 C.3      25        0    0.0000
    360 C         145.6703  138.1498  228.0390 C.3      25        0    0.0000
    361 C         145.2889  138.7963  229.3723 C.3      25        0    0.0000
    362 C         145.9910  140.1399  229.5839 C.3      25        0    0.0000
    363 C         145.6356  137.7173  230.4146 C.3      25        0    0.0000
    364 C         145.6492  136.3754  229.6540 C.3      25        0    0.0000
    365 C         144.8730  135.2328  230.3211 C.3      25        0    0.0000
    366 H         145.6886  136.0402  227.4881 H        25        0    0.0000
    367 H         144.1361  136.6428  228.0858 H        25        0    0.0000
    368 H         146.7538  138.1924  227.8739 H        25        0    0.0000
    369 H         145.1750  138.6300  227.1895 H        25        0    0.0000
    370 H         144.1995  138.9462  229.3831 H        25        0    0.0000
    371 H         146.5161  140.1447  230.5464 H        25        0    0.0000
    372 H         146.7542  140.2759  228.8085 H        25        0    0.0000
    373 H         146.6275  137.8907  230.8503 H        25        0    0.0000
    374 H         144.9186  137.7348  231.2421 H        25        0    0.0000
    375 H         146.6996  136.0511  229.6090 H        25        0    0.0000
    376 H         145.4739  134.3168  230.2750 H        25        0    0.0000
    377 H         143.9603  135.0390  229.7450 H        25        0    0.0000
    378 C         142.1452  132.6279  231.5518 C.3      26        0    0.0000
    379 C         142.2980  134.1248  231.8324 C.3      26        0    0.0000
    380 C         143.7110  134.3224  232.4100 C.3      26        0    0.0000
    381 C         144.4792  135.5023  231.8019 C.3      26        0    0.0000
    382 C         144.4132  132.9823  232.1685 C.3      26        0    0.0000
    383 C         143.2993  131.9364  232.2859 C.3      26        0    0.0000
    384 C         142.9666  131.5944  233.7507 C.3      26        0    0.0000
    385 H         141.1557  132.2587  231.8378 H        26        0    0.0000
    386 H         142.2523  132.4581  230.4727 H        26        0    0.0000
    387 H         142.1298  134.6974  230.9137 H        26        0    0.0000
    388 H         141.5486  134.4547  232.5614 H        26        0    0.0000
    389 H         143.6222  134.4703  233.4958 H        26        0    0.0000
    390 H         143.8518  136.4009  231.8371 H        26        0    0.0000
    391 H         145.3776  135.7187  232.3912 H        26        0    0.0000
    392 H         145.2307  132.8142  232.8770 H        26        0    0.0000
    393 H         144.8391  132.9510  231.1573 H        26        0    0.0000
    394 H         143.5954  131.0224  231.7556 H        26        0    0.0000
    395 H         142.1534  132.2236  234.1291 H        26        0    0.0000
    396 H         143.8427  131.7940  234.3790 H        26        0    0.0000
    397 C         142.5802  130.0965  233.9205 C.3      27        0    0.0000
    398 C         143.3699  129.3691  235.0181 C.3      27        0    0.0000
    399 H         141.5173  130.0724  234.1931 H        27        0    0.0000
    400 H         142.6684  129.5806  232.9572 H        27        0    0.0000
    401 H         144.1442  130.0156  235.4474 H        27        0    0.0000
    402 H         142.6759  129.1269  235.8332 H        27        0    0.0000
    403 C         141.5575  126.9240  231.8790 C.3      28        0    0.0000
    404 C         141.9209  127.8528  233.0274 C.3      28        0    0.0000
    405 C         143.0742  127.1229  233.7275 C.3      28        0    0.0000
    406 C         144.0103  128.0159  234.5518 C.3      28        0    0.0000
    407 C         143.7589  126.2784  232.6331 C.3      28        0    0.0000
    408 C         142.9235  126.4761  231.3550 C.3      28        0    0.0000
    409 C         142.8208  125.2390  230.4595 C.3      28        0    0.0000
    410 H         140.9766  126.0707  232.2499 H        28        0    0.0000
    411 H         140.9665  127.4332  231.1116 H        28        0    0.0000
    412 H         142.2290  128.8252  232.6283 H        28        0    0.0000
    413 H         141.0745  128.0204  233.7008 H        28        0    0.0000
    414 H         142.6220  126.4121  234.4351 H        28        0    0.0000
    415 H         144.3423  127.4613  235.4375 H        28        0    0.0000
    416 H         144.9089  128.2334  233.9624 H        28        0    0.0000
    417 H         143.7641  125.2266  232.9450 H        28        0    0.0000
    418 H         144.8022  126.5629  232.4608 H        28        0    0.0000
    419 H         143.3622  127.3070  230.7834 H        28        0    0.0000
    420 H         141.7758  124.9173  230.3772 H        28        0    0.0000
    421 H         143.1514  125.4967  229.4463 H        28        0    0.0000
    422 C         146.6241  125.4978  232.9032 C.3      29        0    0.0000
    423 C         145.5344  125.6407  231.8499 C.3      29        0    0.0000
    424 C         144.6424  124.4232  232.1136 C.3      29        0    0.0000
    425 C         143.6820  124.0537  230.9790 C.3      29        0    0.0000
    426 C         145.6042  123.3049  232.5608 C.3      29        0    0.0000
    427 C         146.9464  124.0005  232.8604 C.3      29        0    0.0000
    428 C         147.7155  123.4587  234.0693 C.3      29        0    0.0000
    429 H         147.4990  126.1135  232.6725 H        29        0    0.0000
    430 H         146.2375  125.8084  233.8801 H        29        0    0.0000
    431 H         144.9863  126.5823  231.9539 H        29        0    0.0000
    432 H         145.9810  125.6157  230.8498 H        29        0    0.0000
    433 H         144.0168  124.6689  232.9849 H        29        0    0.0000
    434 H         144.2585  123.6434  230.1414 H        29        0    0.0000
    435 H         143.0127  123.2556  231.3216 H        29        0    0.0000
    436 H         145.7526  122.5385  231.7924 H        29        0    0.0000
    437 H         145.1870  122.7906  233.4333 H        29        0    0.0000
    438 H         147.5896  123.8377  231.9824 H        29        0    0.0000
    439 H         148.6621  124.0038  234.1649 H        29        0    0.0000
    440 H         147.1410  123.6629  234.9805 H        29        0    0.0000
    441 C         148.0642  120.9379  230.3626 C.3      30        0    0.0000
    442 C         148.3011  121.9448  231.4777 C.3      30        0    0.0000
    443 C         147.5920  121.3054  232.6732 C.3      30        0    0.0000
    444 C         148.0215  121.9323  234.0020 C.3      30        0    0.0000
    445 C         147.9173  119.8070  232.5332 C.3      30        0    0.0000
    446 C         148.2796  119.5838  231.0505 C.3      30        0    0.0000
    447 C         147.5908  118.3900  230.3772 C.3      30        0    0.0000
    448 H         148.7538  121.0855  229.5255 H        30        0    0.0000
    449 H         147.0440  121.0491  229.9796 H        30        0    0.0000
    450 H         149.3757  122.0553  231.6676 H        30        0    0.0000
    451 H         147.8932  122.9304  231.2332 H        30        0    0.0000
    452 H         146.5080  121.4349  232.5402 H        30        0    0.0000
    453 H         147.5228  121.4269  234.8374 H        30        0    0.0000
    454 H         149.0987  121.7828  234.1416 H        30        0    0.0000
    455 H         148.7760  119.5275  233.1563 H        30        0    0.0000
    456 H         147.0722  119.1952  232.8658 H        30        0    0.0000
    457 H         149.3596  119.3760  231.0194 H        30        0    0.0000
    458 H         147.6000  118.5373  229.2906 H        30        0    0.0000
    459 H         146.5378  118.3685  230.6822 H        30        0    0.0000
    460 C         147.3695  114.6974  227.8297 C.3      31        0    0.0000
    461 C         147.3730  116.0917  228.4375 C.3      31        0    0.0000
    462 C         147.6291  115.8325  229.9276 C.3      31        0    0.0000
    463 C         148.2319  117.0106  230.7033 C.3      31        0    0.0000
    464 C         148.4336  114.5178  229.9901 C.3      31        0    0.0000
    465 C         148.5380  114.0110  228.5400 C.3      31        0    0.0000
    466 C         148.4911  112.4885  228.3890 C.3      31        0    0.0000
    467 H         146.4214  114.1907  228.0471 H        31        0    0.0000
    468 H         147.5030  114.7235  226.7439 H        31        0    0.0000
    469 H         148.1688  116.6888  227.9793 H        31        0    0.0000
    470 H         146.4251  116.6126  228.2701 H        31        0    0.0000
    471 H         146.6525  115.6249  230.3899 H        31        0    0.0000
    472 H         148.1265  116.8200  231.7780 H        31        0    0.0000
    473 H         149.3077  117.0620  230.4976 H        31        0    0.0000
    474 H         147.8966  113.8007  230.6234 H        31        0    0.0000
    475 H         149.4292  114.6439  230.4282 H        31        0    0.0000
    476 H         149.4751  114.3933  228.1096 H        31        0    0.0000
    477 H         148.0002  112.2167  227.4471 H        31        0    0.0000
    478 H         149.5143  112.0981  228.3345 H        31        0    0.0000
    479 C         147.7545  111.7946  229.5691 C.3      32        0    0.0000
    480 C         147.6695  110.2670  229.4397 C.3      32        0    0.0000
    481 H         148.3229  112.0281  230.4785 H        32        0    0.0000
    482 H         146.7610  112.2400  229.6975 H        32        0    0.0000
    483 H         148.1131  109.7677  230.3091 H        32        0    0.0000
    484 H         146.6088  109.9853  229.4234 H        32        0    0.0000
    485 C         149.9746  106.5133  228.8467 C.3      33        0    0.0000
    486 C         148.9842  107.5651  229.3439 C.3      33        0    0.0000
    487 C         148.3180  108.1686  228.0953 C.3      33        0    0.0000
    488 C         148.3080  109.7027  228.1234 C.3      33        0    0.0000
    489 C         149.0916  107.5691  226.9109 C.3      33        0    0.0000
    490 C         149.5679  106.1973  227.4051 C.3      33        0    0.0000
    491 C         148.4930  105.0968  227.3437 C.3      33        0    0.0000
    492 H         150.9834  106.9458  228.8508 H        33        0    0.0000
    493 H         149.9984  105.6315  229.4946 H        33        0    0.0000
    494 H         149.4978  108.3137  229.9571 H        33        0    0.0000
    495 H         148.2216  107.0977  229.9779 H        33        0    0.0000
    496 H         147.2815  107.8045  228.0572 H        33        0    0.0000
    497 H         147.7690  110.0960  227.2537 H        33        0    0.0000
    498 H         149.3377  110.0728  228.0516 H        33        0    0.0000
    499 H         148.4775  107.5108  226.0069 H        33        0    0.0000
    500 H         149.9663  108.1890  226.6744 H        33        0    0.0000
    501 H         150.4484  105.8747  226.8349 H        33        0    0.0000
    502 H         147.4850  105.5253  227.3429 H        33        0    0.0000
    503 H         148.5662  104.4704  228.2411 H        33        0    0.0000
    504 C         146.5444  101.0713  226.3714 C.3      34        0    0.0000
    505 C         146.7460  102.5716  226.5197 C.3      34        0    0.0000
    506 C         148.2615  102.7292  226.3802 C.3      34        0    0.0000
    507 C         148.6678  104.1784  226.1012 C.3      34        0    0.0000
    508 C         148.6325  101.7309  225.2684 C.3      34        0    0.0000
    509 C         147.4914  100.6939  225.2252 C.3      34        0    0.0000
    510 C         147.9364   99.2261  225.1995 C.3      34        0    0.0000
    511 H         145.5042  100.8196  226.1421 H        34        0    0.0000
    512 H         146.8110  100.5718  227.3091 H        34        0    0.0000
    513 H         146.2173  103.1065  225.7213 H        34        0    0.0000
    514 H         146.3782  102.9413  227.4817 H        34        0    0.0000
    515 H         148.7303  102.3907  227.3157 H        34        0    0.0000
    516 H         149.7104  104.2207  225.7646 H        34        0    0.0000
    517 H         148.0564  104.5747  225.2818 H        34        0    0.0000
    518 H         148.6986  102.2295  224.2933 H        34        0    0.0000
    519 H         149.6128  101.2831  225.4623 H        34        0    0.0000
    520 H         146.9447  100.8680  224.2865 H        34        0    0.0000
    521 H         147.1549   98.6231  224.7223 H        34        0    0.0000
    522 H         148.0270   98.8638  226.2305 H        34        0    0.0000
    523 C         150.8625   95.7300  225.5589 C.3      35        0    0.0000
    524 C         150.9790   97.1606  225.0264 C.3      35        0    0.0000
    525 C         149.6304   97.4875  224.3717 C.3      35        0    0.0000
    526 C         149.2843   98.9762  224.4639 C.3      35        0    0.0000
    527 C         148.6546   96.5588  225.1019 C.3      35        0    0.0000
    528 C         149.4484   95.2521  225.2039 C.3      35        0    0.0000
    529 C         148.8996   94.2500  226.2233 C.3      35        0    0.0000
    530 H         151.6210   95.0753  225.1166 H        35        0    0.0000
    531 H         151.0257   95.7298  226.6434 H        35        0    0.0000
    532 H         151.7983   97.2538  224.3055 H        35        0    0.0000
    533 H         151.1977   97.8426  225.8568 H        35        0    0.0000
    534 H         149.6797   97.1842  223.3157 H        35        0    0.0000
    535 H         149.2124   99.3944  223.4527 H        35        0    0.0000
    536 H         150.0858   99.5220  224.9753 H        35        0    0.0000
    537 H         147.7209   96.4277  224.5457 H        35        0    0.0000
    538 H         148.4111   96.9493  226.0979 H        35        0    0.0000
    539 H         149.4844   94.7850  224.2089 H        35        0    0.0000
    540 H         147.8459   94.4639  226.4374 H        35        0    0.0000
    541 H         149.4433   94.3612  227.1691 H        35        0    0.0000
    542 C         146.4399   91.6437  223.2150 C.3      36        0    0.0000
    543 C         146.8011   92.3450  224.5170 C.3      36        0    0.0000
    544 C         148.3246   92.4776  224.4225 C.3      36        0    0.0000
    545 C         149.0413   92.7799  225.7420 C.3      36        0    0.0000
    546 C         148.7973   91.2095  223.6849 C.3      36        0    0.0000
    547 C         147.5263   90.5702  223.0923 C.3      36        0    0.0000
    548 C         147.6856   89.9522  221.6999 C.3      36        0    0.0000
    549 H         145.4355   91.2104  223.2490 H        36        0    0.0000
    550 H         146.4734   92.3604  222.3871 H        36        0    0.0000
    551 H         146.3084   93.3180  224.6076 H        36        0    0.0000
    552 H         146.4931   91.7272  225.3678 H        36        0    0.0000
    553 H         148.5299   93.3271  223.7537 H        36        0    0.0000
    554 H         148.6514   92.1148  226.5217 H        36        0    0.0000
    555 H         150.1070   92.5463  225.6328 H        36        0    0.0000
    556 H         149.2934   90.4918  224.3472 H        36        0    0.0000
    557 H         149.5322   91.4833  222.9204 H        36        0    0.0000
    558 H         147.2412   89.7494  223.7677 H        36        0    0.0000
    559 H         146.7832   89.3785  221.4574 H        36        0    0.0000
    560 H         147.7571   90.7556  220.9572 H        36        0    0.0000
    561 C         150.3146   88.1111  218.2317 C.3      37        0    0.0000
    562 C         149.3685   89.0295  219.0090 C.3      37        0    0.0000
    563 C         148.8905   88.2323  220.2358 C.3      37        0    0.0000
    564 C         148.9259   89.0209  221.5507 C.3      37        0    0.0000
    565 C         149.8011   87.0006  220.2694 C.3      37        0    0.0000
    566 C         150.1012   86.7025  218.7965 C.3      37        0    0.0000
    567 C         148.9544   85.9405  218.1058 C.3      37        0    0.0000
    568 H         150.1554   88.1825  217.1515 H        37        0    0.0000
    569 H         151.3487   88.4236  218.4257 H        37        0    0.0000
    570 H         149.8848   89.9574  219.2792 H        37        0    0.0000
    571 H         148.5091   89.3063  218.3872 H        37        0    0.0000
    572 H         147.8625   87.8916  220.0466 H        37        0    0.0000
    573 H         148.9385   88.3202  222.3942 H        37        0    0.0000
    574 H         149.8453   89.6140  221.6168 H        37        0    0.0000
    575 H         149.3317   86.1576  220.7868 H        37        0    0.0000
    576 H         150.7372   87.2318  220.7940 H        37        0    0.0000
    577 H         151.0264   86.1171  218.7207 H        37        0    0.0000
    578 H         148.9508   86.1248  217.0258 H        37        0    0.0000
    579 H         147.9935   86.2996  218.4933 H        37        0    0.0000
    580 C         152.7221   83.5593  218.1035 C.3      38        0    0.0000
    581 C         151.6087   84.5953  218.0834 C.3      38        0    0.0000
    582 C         150.3408   83.7552  217.8840 C.3      38        0    0.0000
    583 C         149.0394   84.4086  218.3663 C.3      38        0    0.0000
    584 C         150.6547   82.3746  218.4963 C.3      38        0    0.0000
    585 C         152.1255   82.4314  218.9480 C.3      38        0    0.0000
    586 C         152.8964   81.1190  218.7855 C.3      38        0    0.0000
    587 H         152.9412   83.2174  217.0846 H        38        0    0.0000
    588 H         153.6445   83.9575  218.5371 H        38        0    0.0000
    589 H         151.5982   85.1400  219.0337 H        38        0    0.0000
    590 H         151.7453   85.3263  217.2802 H        38        0    0.0000
    591 H         150.2259   83.5993  216.8010 H        38        0    0.0000
    592 H         148.1916   83.9208  217.8707 H        38        0    0.0000
    593 H         148.9231   84.2247  219.4410 H        38        0    0.0000
    594 H         150.5041   81.6025  217.7314 H        38        0    0.0000
    595 H         150.0016   82.1190  219.3373 H        38        0    0.0000
    596 H         152.1486   82.7420  220.0028 H        38        0    0.0000
    597 H         153.7243   81.2517  218.0790 H        38        0    0.0000
    598 H         153.3445   80.8407  219.7467 H        38        0    0.0000
    599 C         153.7437   78.0249  215.5328 C.3      39        0    0.0000
    600 C         153.4942   79.3238  216.2866 C.3      39        0    0.0000
    601 C         152.7357   78.8553  217.5327 C.3      39        0    0.0000
    602 C         151.9913   79.9520  218.3003 C.3      39        0    0.0000
    603 C         151.8702   77.6710  217.0596 C.3      39        0    0.0000
    604 C         152.4056   77.2904  215.6654 C.3      39        0    0.0000
    605 C         152.4464   75.7898  215.3607 C.3      39        0    0.0000
    606 H         154.0126   78.2043  214.4872 H        39        0    0.0000
    607 H         154.5646   77.4746  216.0056 H        39        0    0.0000
    608 H         154.4280   79.8344  216.5414 H        39        0    0.0000
    609 H         152.8938   80.0006  215.6689 H        39        0    0.0000
    610 H         153.4845   78.4424  218.2255 H        39        0    0.0000
    611 H         151.2000   80.3620  217.6616 H        39        0    0.0000
    612 H         151.4945   79.5065  219.1704 H        39        0    0.0000
    613 H         150.8068   77.9231  216.9870 H        39        0    0.0000
    614 H         151.9446   76.8515  217.7825 H        39        0    0.0000
    615 H         151.7209   77.7400  214.9305 H        39        0    0.0000
    616 H         153.4082   75.3827  215.6943 H        39        0    0.0000
    617 H         151.6699   75.2839  215.9467 H        39        0    0.0000
    618 C         151.5679   71.9681  214.9881 C.3      40        0    0.0000
    619 C         152.6055   73.0859  214.8581 C.3      40        0    0.0000
    620 C         152.2020   73.9202  213.6291 C.3      40        0    0.0000
    621 C         152.2480   75.4363  213.8561 C.3      40        0    0.0000
    622 C         150.7955   73.4254  213.2766 C.3      40        0    0.0000
    623 C         150.8006   71.9422  213.6617 C.3      40        0    0.0000
    624 C         151.4709   71.0597  212.5916 C.3      40        0    0.0000
    625 H         152.0303   71.0115  215.2495 H        40        0    0.0000
    626 H         150.8744   72.2226  215.7998 H        40        0    0.0000
    627 H         152.6385   73.6757  215.7808 H        40        0    0.0000
    628 H         153.6055   72.6626  214.7084 H        40        0    0.0000
    629 H         152.8737   73.6587  212.7991 H        40        0    0.0000
    630 H         153.0810   75.8638  213.2854 H        40        0    0.0000
    631 H         151.3318   75.9074  213.4819 H        40        0    0.0000
    632 H         150.5555   73.5900  212.2212 H        40        0    0.0000
    633 H         150.0430   73.9560  213.8743 H        40        0    0.0000
    634 H         149.7704   71.6006  213.8237 H        40        0    0.0000
    635 H         152.5373   70.9230  212.8026 H        40        0    0.0000
    636 H         151.4001   71.5543  211.6155 H        40        0    0.0000
    637 C         152.3979   66.5803  211.1968 C.3      41        0    0.0000
    638 C         152.6079   67.9787  211.7825 C.3      41        0    0.0000
    639 C         151.3942   68.8225  211.3531 C.3      41        0    0.0000
    640 C         150.7857   69.6669  212.4795 C.3      41        0    0.0000
    641 C         150.4011   67.8026  210.7868 C.3      41        0    0.0000
    642 C         151.2803   66.7167  210.1571 C.3      41        0    0.0000
    643 C         151.7969   67.1151  208.7616 C.3      41        0    0.0000
    644 H         153.3263   66.1633  210.7950 H        41        0    0.0000
    645 H         152.0639   65.9084  211.9978 H        41        0    0.0000
    646 H         152.7195   67.9165  212.8706 H        41        0    0.0000
    647 H         153.5287   68.4235  211.3874 H        41        0    0.0000
    648 H         151.7074   69.4852  210.5337 H        41        0    0.0000
    649 H         149.7178   69.8194  212.2827 H        41        0    0.0000
    650 H         150.8600   69.1387  213.4370 H        41        0    0.0000
    651 H         149.7093   68.2578  210.0707 H        41        0    0.0000
    652 H         149.8010   67.3644  211.5948 H        41        0    0.0000
    653 H         150.7122   65.7807  210.0828 H        41        0    0.0000
    654 H         152.7117   66.5684  208.5074 H        41        0    0.0000
    655 H         152.0518   68.1815  208.7587 H        41        0    0.0000
    656 C         147.9905   65.1007  209.3472 C.3      42        0    0.0000
    657 C         149.1962   66.0237  209.5171 C.3      42        0    0.0000
    658 C         149.3018   66.8533  208.2258 C.3      42        0    0.0000
    659 C         150.7272   66.8699  207.6581 C.3      42        0    0.0000
    660 C         148.2583   66.2392  207.2799 C.3      42        0    0.0000
    661 C         147.1625   65.6925  208.2036 C.3      42        0    0.0000
    662 C         146.1729   66.7586  208.7081 C.3      42        0    0.0000
    663 H         148.3452   64.1032  209.0578 H        42        0    0.0000
    664 H         147.4260   64.9854  210.2779 H        42        0    0.0000
    665 H         150.0991   65.4385  209.7231 H        42        0    0.0000
    666 H         149.0438   66.6925  210.3724 H        42        0    0.0000
    667 H         148.9983   67.8833  208.4611 H        42        0    0.0000
    668 H         150.8182   67.6359  206.8793 H        42        0    0.0000
    669 H         150.9377   65.9057  207.1798 H        42        0    0.0000
    670 H         147.8842   66.9671  206.5534 H        42        0    0.0000
    671 H         148.6992   65.4077  206.7147 H        42        0    0.0000
    672 H         146.6059   64.8929  207.6982 H        42        0    0.0000
    673 H         146.6365   67.4076  209.4587 H        42        0    0.0000
    674 H         145.3285   66.2624  209.2017 H        42        0    0.0000
    675 C         145.6086   67.6268  207.5481 C.3      43        0    0.0000
    676 C         144.0792   67.5804  207.4211 C.3      43        0    0.0000
    677 H         145.9016   68.6637  207.7569 H        43        0    0.0000
    678 H         146.0957   67.3472  206.6065 H        43        0    0.0000
    679 H         143.6312   66.9720  208.2155 H        43        0    0.0000
    680 H         143.6955   68.6003  207.5530 H        43        0    0.0000
    681 C         145.9061   64.0962  205.7580 C.3      44        0    0.0000
    682 C         144.9536   64.9621  206.5706 C.3      44        0    0.0000
    683 C         144.2878   65.8342  205.5012 C.3      44        0    0.0000
    684 C         143.5706   67.0827  206.0238 C.3      44        0    0.0000
    685 C         145.3823   66.0892  204.4465 C.3      44        0    0.0000
    686 C         146.5148   65.0945  204.7677 C.3      44        0    0.0000
    687 C         147.2127   64.4738  203.5537 C.3      44        0    0.0000
    688 H         146.6675   63.6247  206.3870 H        44        0    0.0000
    689 H         145.3447   63.3035  205.2514 H        44        0    0.0000
    690 H         144.2250   64.3607  207.1231 H        44        0    0.0000
    691 H         145.5211   65.5581  207.2939 H        44        0    0.0000
    692 H         143.5199   65.2130  205.0158 H        44        0    0.0000
    693 H         143.6889   67.8944  205.2963 H        44        0    0.0000
    694 H         142.4961   66.8760  206.0933 H        44        0    0.0000
    695 H         145.7735   67.1118  204.4776 H        44        0    0.0000
    696 H         144.9642   65.9490  203.4438 H        44        0    0.0000
    697 H         147.2845   65.6585  205.3160 H        44        0    0.0000
    698 H         147.6625   65.2726  202.9521 H        44        0    0.0000
    699 H         148.0365   63.8383  203.8999 H        44        0    0.0000
    700 H         146.5578   63.8810  202.9151 H        44        0    0.0000
    701 H         141.5078  148.4983  248.5553 H         0        0    0.0000
@<TRIPOS>BOND
     1     1     2      1
     2     1     6      1
     3     1     8      1
     4     1     9      1
     5     2     3      1
     6     2    10      1
     7     2    11      1
     8     3     4      1
     9     3     5      1
    10     3    12      1
    11     4    13      1
    12     4    14      1
    13     4   701      H
    14     5     6      1
    15     5    15      1
    16     5    16      1
    17     6     7      1
    18     6    17      1
    19     7    18      1
    20     7    19      1
    21     7    23      1
    22    20    21      1
    23    20    25      1
    24    20    27      1
    25    20    28      1
    26    21    22      1
    27    21    29      1
    28    21    30      1
    29    22    23      1
    30    22    24      1
    31    22    31      1
    32    23    32      1
    33    23    33      1
    34    24    25      1
    35    24    34      1
    36    24    35      1
    37    25    26      1
    38    25    36      1
    39    26    37      1
    40    26    38      1
    41    26    39      1
    42    39    40      1
    43    39    41      1
    44    39    42      1
    45    40    43      1
    46    40    44      1
    47    40    48      1
    48    45    46      1
    49    45    50      1
    50    45    52      1
    51    45    53      1
    52    46    47      1
    53    46    54      1
    54    46    55      1
    55    47    48      1
    56    47    49      1
    57    47    56      1
    58    48    57      1
    59    48    58      1
    60    49    50      1
    61    49    59      1
    62    49    60      1
    63    50    51      1
    64    50    61      1
    65    51    62      1
    66    51    63      1
    67    51    64      1
    68    64    65      1
    69    64    66      1
    70    64    67      1
    71    65    68      1
    72    65    69      1
    73    65    73      1
    74    70    71      1
    75    70    75      1
    76    70    77      1
    77    70    78      1
    78    71    72      1
    79    71    79      1
    80    71    80      1
    81    72    73      1
    82    72    74      1
    83    72    81      1
    84    73    82      1
    85    73    83      1
    86    74    75      1
    87    74    84      1
    88    74    85      1
    89    75    76      1
    90    75    86      1
    91    76    87      1
    92    76    88      1
    93    76    92      1
    94    89    90      1
    95    89    94      1
    96    89    96      1
    97    89    97      1
    98    90    91      1
    99    90    98      1
   100    90    99      1
   101    91    92      1
   102    91    93      1
   103    91   100      1
   104    92   101      1
   105    92   102      1
   106    93    94      1
   107    93   103      1
   108    93   104      1
   109    94    95      1
   110    94   105      1
   111    95   106      1
   112    95   107      1
   113    95   108      1
   114   108   109      1
   115   108   110      1
   116   108   111      1
   117   109   112      1
   118   109   113      1
   119   109   114      1
   120   114   115      1
   121   114   116      1
   122   114   117      1
   123   115   118      1
   124   115   119      1
   125   115   120      1
   126   120   121      1
   127   120   122      1
   128   120   123      1
   129   121   124      1
   130   121   125      1
   131   121   126      1
   132   126   127      1
   133   126   128      1
   134   126   129      1
   135   127   130      1
   136   127   131      1
   137   127   135      1
   138   132   133      1
   139   132   137      1
   140   132   139      1
   141   132   140      1
   142   133   134      1
   143   133   141      1
   144   133   142      1
   145   134   135      1
   146   134   136      1
   147   134   143      1
   148   135   144      1
   149   135   145      1
   150   136   137      1
   151   136   146      1
   152   136   147      1
   153   137   138      1
   154   137   148      1
   155   138   149      1
   156   138   150      1
   157   138   154      1
   158   151   152      1
   159   151   156      1
   160   151   158      1
   161   151   159      1
   162   152   153      1
   163   152   160      1
   164   152   161      1
   165   153   154      1
   166   153   155      1
   167   153   162      1
   168   154   163      1
   169   154   164      1
   170   155   156      1
   171   155   165      1
   172   155   166      1
   173   156   157      1
   174   156   167      1
   175   157   168      1
   176   157   169      1
   177   157   170      1
   178   170   171      1
   179   170   172      1
   180   170   173      1
   181   171   174      1
   182   171   175      1
   183   171   179      1
   184   176   177      1
   185   176   181      1
   186   176   183      1
   187   176   184      1
   188   177   178      1
   189   177   185      1
   190   177   186      1
   191   178   179      1
   192   178   180      1
   193   178   187      1
   194   179   188      1
   195   179   189      1
   196   180   181      1
   197   180   190      1
   198   180   191      1
   199   181   182      1
   200   181   192      1
   201   182   193      1
   202   182   194      1
   203   182   195      1
   204   195   196      1
   205   195   197      1
   206   195   198      1
   207   196   199      1
   208   196   200      1
   209   196   204      1
   210   201   202      1
   211   201   206      1
   212   201   208      1
   213   201   209      1
   214   202   203      1
   215   202   210      1
   216   202   211      1
   217   203   204      1
   218   203   205      1
   219   203   212      1
   220   204   213      1
   221   204   214      1
   222   205   206      1
   223   205   215      1
   224   205   216      1
   225   206   207      1
   226   206   217      1
   227   207   218      1
   228   207   219      1
   229   207   223      1
   230   220   221      1
   231   220   225      1
   232   220   227      1
   233   220   228      1
   234   221   222      1
   235   221   229      1
   236   221   230      1
   237   222   223      1
   238   222   224      1
   239   222   231      1
   240   223   232      1
   241   223   233      1
   242   224   225      1
   243   224   234      1
   244   224   235      1
   245   225   226      1
   246   225   236      1
   247   226   237      1
   248   226   238      1
   249   226   242      1
   250   239   240      1
   251   239   244      1
   252   239   246      1
   253   239   247      1
   254   240   241      1
   255   240   248      1
   256   240   249      1
   257   241   242      1
   258   241   243      1
   259   241   250      1
   260   242   251      1
   261   242   252      1
   262   243   244      1
   263   243   253      1
   264   243   254      1
   265   244   245      1
   266   244   255      1
   267   245   256      1
   268   245   257      1
   269   245   261      1
   270   258   259      1
   271   258   263      1
   272   258   265      1
   273   258   266      1
   274   259   260      1
   275   259   267      1
   276   259   268      1
   277   260   261      1
   278   260   262      1
   279   260   269      1
   280   261   270      1
   281   261   271      1
   282   262   263      1
   283   262   272      1
   284   262   273      1
   285   263   264      1
   286   263   274      1
   287   264   275      1
   288   264   276      1
   289   264   277      1
   290   277   278      1
   291   277   279      1
   292   277   280      1
   293   278   281      1
   294   278   282      1
   295   278   286      1
   296   283   284      1
   297   283   288      1
   298   283   290      1
   299   283   291      1
   300   284   285      1
   301   284   292      1
   302   284   293      1
   303   285   286      1
   304   285   287      1
   305   285   294      1
   306   286   295      1
   307   286   296      1
   308   287   288      1
   309   287   297      1
   310   287   298      1
   311   288   289      1
   312   288   299      1
   313   289   300      1
   314   289   301      1
   315   289   305      1
   316   302   303      1
   317   302   307      1
   318   302   309      1
   319   302   310      1
   320   303   304      1
   321   303   311      1
   322   303   312      1
   323   304   305      1
   324   304   306      1
   325   304   313      1
   326   305   314      1
   327   305   315      1
   328   306   307      1
   329   306   316      1
   330   306   317      1
   331   307   308      1
   332   307   318      1
   333   308   319      1
   334   308   320      1
   335   308   324      1
   336   321   322      1
   337   321   326      1
   338   321   328      1
   339   321   329      1
   340   322   323      1
   341   322   330      1
   342   322   331      1
   343   323   324      1
   344   323   325      1
   345   323   332      1
   346   324   333      1
   347   324   334      1
   348   325   326      1
   349   325   335      1
   350   325   336      1
   351   326   327      1
   352   326   337      1
   353   327   338      1
   354   327   339      1
   355   327   343      1
   356   340   341      1
   357   340   345      1
   358   340   347      1
   359   340   348      1
   360   341   342      1
   361   341   349      1
   362   341   350      1
   363   342   343      1
   364   342   344      1
   365   342   351      1
   366   343   352      1
   367   343   353      1
   368   344   345      1
   369   344   354      1
   370   344   355      1
   371   345   346      1
   372   345   356      1
   373   346   357      1
   374   346   358      1
   375   346   362      1
   376   359   360      1
   377   359   364      1
   378   359   366      1
   379   359   367      1
   380   360   361      1
   381   360   368      1
   382   360   369      1
   383   361   362      1
   384   361   363      1
   385   361   370      1
   386   362   371      1
   387   362   372      1
   388   363   364      1
   389   363   373      1
   390   363   374      1
   391   364   365      1
   392   364   375      1
   393   365   376      1
   394   365   377      1
   395   365   381      1
   396   378   379      1
   397   378   383      1
   398   378   385      1
   399   378   386      1
   400   379   380      1
   401   379   387      1
   402   379   388      1
   403   380   381      1
   404   380   382      1
   405   380   389      1
   406   381   390      1
   407   381   391      1
   408   382   383      1
   409   382   392      1
   410   382   393      1
   411   383   384      1
   412   383   394      1
   413   384   395      1
   414   384   396      1
   415   384   397      1
   416   397   398      1
   417   397   399      1
   418   397   400      1
   419   398   401      1
   420   398   402      1
   421   398   406      1
   422   403   404      1
   423   403   408      1
   424   403   410      1
   425   403   411      1
   426   404   405      1
   427   404   412      1
   428   404   413      1
   429   405   406      1
   430   405   407      1
   431   405   414      1
   432   406   415      1
   433   406   416      1
   434   407   408      1
   435   407   417      1
   436   407   418      1
   437   408   409      1
   438   408   419      1
   439   409   420      1
   440   409   421      1
   441   409   425      1
   442   422   423      1
   443   422   427      1
   444   422   429      1
   445   422   430      1
   446   423   424      1
   447   423   431      1
   448   423   432      1
   449   424   425      1
   450   424   426      1
   451   424   433      1
   452   425   434      1
   453   425   435      1
   454   426   427      1
   455   426   436      1
   456   426   437      1
   457   427   428      1
   458   427   438      1
   459   428   439      1
   460   428   440      1
   461   428   444      1
   462   441   442      1
   463   441   446      1
   464   441   448      1
   465   441   449      1
   466   442   443      1
   467   442   450      1
   468   442   451      1
   469   443   444      1
   470   443   445      1
   471   443   452      1
   472   444   453      1
   473   444   454      1
   474   445   446      1
   475   445   455      1
   476   445   456      1
   477   446   447      1
   478   446   457      1
   479   447   458      1
   480   447   459      1
   481   447   463      1
   482   460   461      1
   483   460   465      1
   484   460   467      1
   485   460   468      1
   486   461   462      1
   487   461   469      1
   488   461   470      1
   489   462   463      1
   490   462   464      1
   491   462   471      1
   492   463   472      1
   493   463   473      1
   494   464   465      1
   495   464   474      1
   496   464   475      1
   497   465   466      1
   498   465   476      1
   499   466   477      1
   500   466   478      1
   501   466   479      1
   502   479   480      1
   503   479   481      1
   504   479   482      1
   505   480   483      1
   506   480   484      1
   507   480   488      1
   508   485   486      1
   509   485   490      1
   510   485   492      1
   511   485   493      1
   512   486   487      1
   513   486   494      1
   514   486   495      1
   515   487   488      1
   516   487   489      1
   517   487   496      1
   518   488   497      1
   519   488   498      1
   520   489   490      1
   521   489   499      1
   522   489   500      1
   523   490   491      1
   524   490   501      1
   525   491   502      1
   526   491   503      1
   527   491   507      1
   528   504   505      1
   529   504   509      1
   530   504   511      1
   531   504   512      1
   532   505   506      1
   533   505   513      1
   534   505   514      1
   535   506   507      1
   536   506   508      1
   537   506   515      1
   538   507   516      1
   539   507   517      1
   540   508   509      1
   541   508   518      1
   542   508   519      1
   543   509   510      1
   544   509   520      1
   545   510   521      1
   546   510   522      1
   547   510   526      1
   548   523   524      1
   549   523   528      1
   550   523   530      1
   551   523   531      1
   552   524   525      1
   553   524   532      1
   554   524   533      1
   555   525   526      1
   556   525   527      1
   557   525   534      1
   558   526   535      1
   559   526   536      1
   560   527   528      1
   561   527   537      1
   562   527   538      1
   563   528   529      1
   564   528   539      1
   565   529   540      1
   566   529   541      1
   567   529   545      1
   568   542   543      1
   569   542   547      1
   570   542   549      1
   571   542   550      1
   572   543   544      1
   573   543   551      1
   574   543   552      1
   575   544   545      1
   576   544   546      1
   577   544   553      1
   578   545   554      1
   579   545   555      1
   580   546   547      1
   581   546   556      1
   582   546   557      1
   583   547   548      1
   584   547   558      1
   585   548   559      1
   586   548   560      1
   587   548   564      1
   588   561   562      1
   589   561   566      1
   590   561   568      1
   591   561   569      1
   592   562   563      1
   593   562   570      1
   594   562   571      1
   595   563   564      1
   596   563   565      1
   597   563   572      1
   598   564   573      1
   599   564   574      1
   600   565   566      1
   601   565   575      1
   602   565   576      1
   603   566   567      1
   604   566   577      1
   605   567   578      1
   606   567   579      1
   607   567   583      1
   608   580   581      1
   609   580   585      1
   610   580   587      1
   611   580   588      1
   612   581   582      1
   613   581   589      1
   614   581   590      1
   615   582   583      1
   616   582   584      1
   617   582   591      1
   618   583   592      1
   619   583   593      1
   620   584   585      1
   621   584   594      1
   622   584   595      1
   623   585   586      1
   624   585   596      1
   625   586   597      1
   626   586   598      1
   627   586   602      1
   628   599   600      1
   629   599   604      1
   630   599   606      1
   631   599   607      1
   632   600   601      1
   633   600   608      1
   634   600   609      1
   635   601   602      1
   636   601   603      1
   637   601   610      1
   638   602   611      1
   639   602   612      1
   640   603   604      1
   641   603   613      1
   642   603   614      1
   643   604   605      1
   644   604   615      1
   645   605   616      1
   646   605   617      1
   647   605   621      1
   648   618   619      1
   649   618   623      1
   650   618   625      1
   651   618   626      1
   652   619   620      1
   653   619   627      1
   654   619   628      1
   655   620   621      1
   656   620   622      1
   657   620   629      1
   658   621   630      1
   659   621   631      1
   660   622   623      1
   661   622   632      1
   662   622   633      1
   663   623   624      1
   664   623   634      1
   665   624   635      1
   666   624   636      1
   667   624   640      1
   668   637   638      1
   669   637   642      1
   670   637   644      1
   671   637   645      1
   672   638   639      1
   673   638   646      1
   674   638   647      1
   675   639   640      1
   676   639   641      1
   677   639   648      1
   678   640   649      1
   679   640   650      1
   680   641   642      1
   681   641   651      1
   682   641   652      1
   683   642   643      1
   684   642   653      1
   685   643   654      1
   686   643   655      1
   687   643   659      1
   688   656   657      1
   689   656   661      1
   690   656   663      1
   691   656   664      1
   692   657   658      1
   693   657   665      1
   694   657   666      1
   695   658   659      1
   696   658   660      1
   697   658   667      1
   698   659   668      1
   699   659   669      1
   700   660   661      1
   701   660   670      1
   702   660   671      1
   703   661   662      1
   704   661   672      1
   705   662   673      1
   706   662   674      1
   707   662   675      1
   708   675   676      1
   709   675   677      1
   710   675   678      1
   711   676   679      1
   712   676   680      1
   713   676   684      1
   714   681   682      1
   715   681   686      1
   716   681   688      1
   717   681   689      1
   718   682   683      1
   719   682   690      1
   720   682   691      1
   721   683   684      1
   722   683   685      1
   723   683   692      1
   724   684   693      1
   725   684   694      1
   726   685   686      1
   727   685   695      1
   728   685   696      1
   729   686   687      1
   730   686   697      1
   731   687   698      1
   732   687   699      1
   733   687   700      H
