###
### Created by PolyChef-cpp17 on Wed Feb 26 21:14:13 2025
###

@<TRIPOS>MOLECULE
NO_INFO
1506 1575 1 0 0
SMALL
USER_CHARGES


@<TRIPOS>ATOM
      1 C         163.1324  160.3455   53.4723 C.3       0        0    0.0000
      2 C         162.6265  161.3310   52.4282 C.3       0        0    0.0000
      3 C         161.9085  160.4249   51.4226 C.3       0        0    0.0000
      4 C         161.6310  161.0526   50.0533 C.3       0        0    0.0000
      5 C         162.7234  159.1169   51.4011 C.3       0        0    0.0000
      6 C         163.6633  159.1877   52.6205 C.3       0        0    0.0000
      7 C         163.8779  157.8672   53.3665 C.3       0        0    0.0000
      8 H         163.9121  160.7830   54.1034 H         0        0    0.0000
      9 H         162.3049  160.0351   54.1198 H         0        0    0.0000
     10 H         161.9540  162.0773   52.8624 H         0        0    0.0000
     11 H         163.4736  161.8584   51.9760 H         0        0    0.0000
     12 H         160.9281  160.1791   51.8581 H         0        0    0.0000
     13 H         160.7086  161.6428   50.1103 H         0        0    0.0000
     14 H         162.4386  161.7531   49.8098 H         0        0    0.0000
     15 H         163.3169  159.0000   50.4879 H         0        0    0.0000
     16 H         162.0418  158.2603   51.4381 H         0        0    0.0000
     17 H         164.6494  159.4965   52.2419 H         0        0    0.0000
     18 H         163.3969  157.0570   52.8057 H         0        0    0.0000
     19 H         164.9502  157.6398   53.3913 H         0        0    0.0000
     20 C         165.4581  159.5396   57.3601 C.3       1        0    0.0000
     21 C         164.1383  158.8162   57.0814 C.3       1        0    0.0000
     22 C         163.7847  159.0969   55.6098 C.3       1        0    0.0000
     23 C         163.3307  157.8597   54.8255 C.3       1        0    0.0000
     24 C         165.0540  159.7250   55.0252 C.3       1        0    0.0000
     25 C         165.6693  160.5072   56.1905 C.3       1        0    0.0000
     26 C         164.9903  161.8732   56.4047 C.3       1        0    0.0000
     27 H         165.4572  160.0254   58.3405 H         1        0    0.0000
     28 H         166.2706  158.8017   57.3676 H         1        0    0.0000
     29 H         164.2439  157.7473   57.2973 H         1        0    0.0000
     30 H         163.3466  159.2018   57.7343 H         1        0    0.0000
     31 H         162.9871  159.8531   55.5850 H         1        0    0.0000
     32 H         163.6952  156.9565   55.3292 H         1        0    0.0000
     33 H         162.2366  157.7957   54.8110 H         1        0    0.0000
     34 H         164.8369  160.3559   54.1571 H         1        0    0.0000
     35 H         165.7524  158.9429   54.7003 H         1        0    0.0000
     36 H         166.7411  160.6566   56.0081 H         1        0    0.0000
     37 H         164.1352  161.7879   57.0843 H         1        0    0.0000
     38 H         164.6012  162.2403   55.4475 H         1        0    0.0000
     39 C         165.9860  162.9323   56.9607 C.3       2        0    0.0000
     40 C         165.3259  164.0157   57.8254 C.3       2        0    0.0000
     41 H         166.7080  162.3910   57.5855 H         2        0    0.0000
     42 H         166.5555  163.3735   56.1343 H         2        0    0.0000
     43 H         164.6035  164.6030   57.2464 H         2        0    0.0000
     44 H         164.7584  163.5170   58.6216 H         2        0    0.0000
     45 C         169.8560  163.8195   58.8514 C.3       3        0    0.0000
     46 C         168.4600  163.5179   58.3008 C.3       3        0    0.0000
     47 C         167.4566  164.2014   59.2470 C.3       3        0    0.0000
     48 C         166.3447  164.9771   58.5299 C.3       3        0    0.0000
     49 C         168.3208  165.1050   60.1322 C.3       3        0    0.0000
     50 C         169.6477  164.3514   60.2736 C.3       3        0    0.0000
     51 C         169.5796  163.2354   61.3334 C.3       3        0    0.0000
     52 H         170.5123  162.9457   58.7985 H         3        0    0.0000
     53 H         170.3157  164.6047   58.2376 H         3        0    0.0000
     54 H         168.3800  163.8726   57.2673 H         3        0    0.0000
     55 H         168.2809  162.4364   58.2868 H         3        0    0.0000
     56 H         167.0042  163.4295   59.8859 H         3        0    0.0000
     57 H         165.7996  165.5879   59.2593 H         3        0    0.0000
     58 H         166.7729  165.6676   57.7941 H         3        0    0.0000
     59 H         167.8444  165.3116   61.0961 H         3        0    0.0000
     60 H         168.4983  166.0683   59.6368 H         3        0    0.0000
     61 H         170.4454  165.0573   60.5373 H         3        0    0.0000
     62 H         170.3549  162.4803   61.1633 H         3        0    0.0000
     63 H         168.6134  162.7222   61.2598 H         3        0    0.0000
     64 C         169.7189  163.8004   62.7767 C.3       4        0    0.0000
     65 C         170.3554  162.8195   63.7718 C.3       4        0    0.0000
     66 H         170.3654  164.6848   62.7097 H         4        0    0.0000
     67 H         168.7430  164.1517   63.1318 H         4        0    0.0000
     68 H         169.6678  162.0033   64.0226 H         4        0    0.0000
     69 H         171.2254  162.3589   63.2866 H         4        0    0.0000
     70 C         168.2901  163.8485   67.0795 C.3       5        0    0.0000
     71 C         168.5181  164.2665   65.6244 C.3       5        0    0.0000
     72 C         169.9897  164.6804   65.5141 C.3       5        0    0.0000
     73 C         170.8759  163.4949   65.0877 C.3       5        0    0.0000
     74 C         170.2792  165.2157   66.9222 C.3       5        0    0.0000
     75 C         169.5591  164.2390   67.8554 C.3       5        0    0.0000
     76 C         169.2964  164.8418   69.2401 C.3       5        0    0.0000
     77 H         167.3926  164.3417   67.4698 H         5        0    0.0000
     78 H         168.1222  162.7676   67.1483 H         5        0    0.0000
     79 H         167.8809  165.1316   65.4011 H         5        0    0.0000
     80 H         168.2388  163.4739   64.9228 H         5        0    0.0000
     81 H         170.0950  165.4868   64.7770 H         5        0    0.0000
     82 H         170.8768  162.7409   65.8841 H         5        0    0.0000
     83 H         171.9171  163.8062   64.9513 H         5        0    0.0000
     84 H         169.8528  166.2224   67.0229 H         5        0    0.0000
     85 H         171.3463  165.2877   67.1525 H         5        0    0.0000
     86 H         170.1849  163.3426   67.9689 H         5        0    0.0000
     87 H         168.3058  165.3101   69.2705 H         5        0    0.0000
     88 H         170.0287  165.6336   69.4373 H         5        0    0.0000
     89 C         169.1202  165.2777   73.8130 C.3       6        0    0.0000
     90 C         168.9336  165.3665   72.2962 C.3       6        0    0.0000
     91 C         169.9170  164.3616   71.6818 C.3       6        0    0.0000
     92 C         169.4013  163.7729   70.3657 C.3       6        0    0.0000
     93 C         170.1159  163.3381   72.8046 C.3       6        0    0.0000
     94 C         170.2086  164.2230   74.0521 C.3       6        0    0.0000
     95 C         170.0178  163.4798   75.3771 C.3       6        0    0.0000
     96 H         169.4104  166.2447   74.2379 H         6        0    0.0000
     97 H         168.1716  164.9888   74.2812 H         6        0    0.0000
     98 H         169.1262  166.3799   71.9279 H         6        0    0.0000
     99 H         167.8960  165.1199   72.0410 H         6        0    0.0000
    100 H         170.8711  164.8796   71.5062 H         6        0    0.0000
    101 H         168.4074  163.3390   70.5281 H         6        0    0.0000
    102 H         170.0524  162.9559   70.0336 H         6        0    0.0000
    103 H         171.0218  162.7413   72.6582 H         6        0    0.0000
    104 H         169.2595  162.6552   72.8700 H         6        0    0.0000
    105 H         171.1841  164.7308   74.0502 H         6        0    0.0000
    106 H         169.0061  163.6471   75.7649 H         6        0    0.0000
    107 H         170.7130  163.8845   76.1225 H         6        0    0.0000
    108 C         170.2734  161.9536   75.2408 C.3       7        0    0.0000
    109 C         170.3776  161.2162   76.5835 C.3       7        0    0.0000
    110 H         169.4206  161.5376   74.6892 H         7        0    0.0000
    111 H         171.1613  161.7816   74.6213 H         7        0    0.0000
    112 H         171.1752  161.6355   77.2080 H         7        0    0.0000
    113 H         169.4381  161.3692   77.1298 H         7        0    0.0000
    114 C         170.5738  159.6666   76.4457 C.3       8        0    0.0000
    115 C         170.6213  158.9220   77.7876 C.3       8        0    0.0000
    116 H         171.5340  159.5129   75.9369 H         8        0    0.0000
    117 H         169.8006  159.2534   75.7874 H         8        0    0.0000
    118 H         170.8630  157.8707   77.5853 H         8        0    0.0000
    119 H         171.4205  159.3092   78.4305 H         8        0    0.0000
    120 C         169.2624  158.9316   78.5700 C.3       9        0    0.0000
    121 C         169.3005  158.1584   79.8959 C.3       9        0    0.0000
    122 H         169.0335  159.9813   78.7944 H         9        0    0.0000
    123 H         168.4588  158.5678   77.9190 H         9        0    0.0000
    124 H         169.0039  158.7951   80.7376 H         9        0    0.0000
    125 H         168.5615  157.3488   79.8393 H         9        0    0.0000
    126 C         170.6841  157.4875   80.2027 C.3      10        0    0.0000
    127 C         170.7040  156.6624   81.4974 C.3      10        0    0.0000
    128 H         171.4144  158.3003   80.3057 H        10        0    0.0000
    129 H         171.0026  156.8873   79.3423 H        10        0    0.0000
    130 H         170.8315  155.6065   81.2262 H        10        0    0.0000
    131 H         171.5602  156.9297   82.1277 H        10        0    0.0000
    132 C         170.1508  157.3876   86.0025 C.3      11        0    0.0000
    133 C         170.5177  156.7668   84.6618 C.3      11        0    0.0000
    134 C         169.5447  157.4465   83.6928 C.3      11        0    0.0000
    135 C         169.3814  156.7582   82.3343 C.3      11        0    0.0000
    136 C         168.2450  157.6468   84.4967 C.3      11        0    0.0000
    137 C         168.6189  157.3909   85.9698 C.3      11        0    0.0000
    138 C         167.9415  158.3086   86.9921 C.3      11        0    0.0000
    139 H         170.5429  156.8066   86.8430 H        11        0    0.0000
    140 H         170.5638  158.4002   86.0668 H        11        0    0.0000
    141 H         171.5623  156.9559   84.3959 H        11        0    0.0000
    142 H         170.3680  155.6822   84.7029 H        11        0    0.0000
    143 H         169.9474  158.4500   83.4882 H        11        0    0.0000
    144 H         168.9894  155.7462   82.4904 H        11        0    0.0000
    145 H         168.6309  157.2995   81.7461 H        11        0    0.0000
    146 H         167.4482  156.9579   84.1963 H        11        0    0.0000
    147 H         167.8603  158.6578   84.3246 H        11        0    0.0000
    148 H         168.2927  156.3665   86.2051 H        11        0    0.0000
    149 H         168.1882  157.9623   88.0028 H        11        0    0.0000
    150 H         168.3550  159.3194   86.8957 H        11        0    0.0000
    151 C         165.1308  154.9208   87.6458 C.3      12        0    0.0000
    152 C         166.2771  155.9239   87.4916 C.3      12        0    0.0000
    153 C         165.7640  157.0230   86.5520 C.3      12        0    0.0000
    154 C         166.3913  158.3867   86.8542 C.3      12        0    0.0000
    155 C         164.2447  156.9627   86.7424 C.3      12        0    0.0000
    156 C         163.9729  155.4556   86.7929 C.3      12        0    0.0000
    157 C         162.6046  155.0728   87.3635 C.3      12        0    0.0000
    158 H         165.4292  153.9188   87.3191 H        12        0    0.0000
    159 H         164.8498  154.8474   88.7032 H        12        0    0.0000
    160 H         167.1747  155.4463   87.0842 H        12        0    0.0000
    161 H         166.5426  156.3288   88.4755 H        12        0    0.0000
    162 H         165.9999  156.7283   85.5190 H        12        0    0.0000
    163 H         165.9770  158.7759   87.7919 H        12        0    0.0000
    164 H         166.1306  159.1073   86.0703 H        12        0    0.0000
    165 H         163.7099  157.4474   85.9195 H        12        0    0.0000
    166 H         163.9469  157.4473   87.6807 H        12        0    0.0000
    167 H         164.0777  155.0461   85.7776 H        12        0    0.0000
    168 H         162.4697  153.9854   87.3311 H        12        0    0.0000
    169 H         161.8166  155.5079   86.7372 H        12        0    0.0000
    170 C         162.4106  155.5746   88.8208 C.3      13        0    0.0000
    171 C         161.1074  155.0965   89.4769 C.3      13        0    0.0000
    172 H         163.2511  155.1802   89.4061 H        13        0    0.0000
    173 H         162.4941  156.6673   88.8494 H        13        0    0.0000
    174 H         160.2380  155.3226   88.8484 H        13        0    0.0000
    175 H         161.1530  154.0037   89.5679 H        13        0    0.0000
    176 C         158.0905  158.0430   91.1220 C.3      14        0    0.0000
    177 C         158.8298  157.0306   90.2485 C.3      14        0    0.0000
    178 C         159.3971  155.9606   91.1973 C.3      14        0    0.0000
    179 C         160.8766  155.6617   90.9212 C.3      14        0    0.0000
    180 C         159.1207  156.5028   92.6081 C.3      14        0    0.0000
    181 C         157.8479  157.3467   92.4635 C.3      14        0    0.0000
    182 C         156.5451  156.5264   92.4532 C.3      14        0    0.0000
    183 H         158.7379  158.9152   91.2796 H        14        0    0.0000
    184 H         157.1726  158.4035   90.6473 H        14        0    0.0000
    185 H         159.6047  157.5303   89.6570 H        14        0    0.0000
    186 H         158.1356  156.5630   89.5402 H        14        0    0.0000
    187 H         158.8134  155.0403   91.0549 H        14        0    0.0000
    188 H         161.2666  154.9534   91.6613 H        14        0    0.0000
    189 H         161.4587  156.5848   91.0290 H        14        0    0.0000
    190 H         159.0222  155.6993   93.3445 H        14        0    0.0000
    191 H         159.9449  157.1497   92.9358 H        14        0    0.0000
    192 H         157.7974  158.0952   93.2646 H        14        0    0.0000
    193 H         156.7051  155.5318   92.0233 H        14        0    0.0000
    194 H         155.8077  157.0283   91.8150 H        14        0    0.0000
    195 C         155.9327  156.3850   93.8755 C.3      15        0    0.0000
    196 C         154.3974  156.3849   93.8964 C.3      15        0    0.0000
    197 H         156.2787  155.4231   94.2752 H        15        0    0.0000
    198 H         156.3405  157.1623   94.5323 H        15        0    0.0000
    199 H         153.9900  157.1921   93.2764 H        15        0    0.0000
    200 H         154.0509  155.4429   93.4525 H        15        0    0.0000
    201 C         155.1365  153.7131   97.3559 C.3      16        0    0.0000
    202 C         155.2947  154.5486   96.0865 C.3      16        0    0.0000
    203 C         154.7488  155.9501   96.4101 C.3      16        0    0.0000
    204 C         153.7799  156.4611   95.3357 C.3      16        0    0.0000
    205 C         154.1204  155.8125   97.8055 C.3      16        0    0.0000
    206 C         154.9352  154.7126   98.4978 C.3      16        0    0.0000
    207 C         156.2776  155.1931   99.0787 C.3      16        0    0.0000
    208 H         154.2390  153.0886   97.2600 H        16        0    0.0000
    209 H         155.9841  153.0387   97.5131 H        16        0    0.0000
    210 H         154.7753  154.0717   95.2481 H        16        0    0.0000
    211 H         156.3532  154.6212   95.8101 H        16        0    0.0000
    212 H         155.6039  156.6376   96.4772 H        16        0    0.0000
    213 H         153.4786  157.4922   95.5539 H        16        0    0.0000
    214 H         152.8668  155.8541   95.3535 H        16        0    0.0000
    215 H         154.1252  156.7600   98.3530 H        16        0    0.0000
    216 H         153.0755  155.4864   97.7220 H        16        0    0.0000
    217 H         154.3418  154.2477   99.2955 H        16        0    0.0000
    218 H         156.8472  155.7678   98.3405 H        16        0    0.0000
    219 H         156.8910  154.3217   99.3383 H        16        0    0.0000
    220 C         153.2280  158.3950  101.1020 C.3      17        0    0.0000
    221 C         154.4836  157.6373  101.5417 C.3      17        0    0.0000
    222 C         154.6241  156.4453  100.5860 C.3      17        0    0.0000
    223 C         156.0856  156.0458  100.3648 C.3      17        0    0.0000
    224 C         153.8945  156.9217   99.3255 C.3      17        0    0.0000
    225 C         152.6622  157.6291   99.8989 C.3      17        0    0.0000
    226 C         151.9376  158.5488   98.9120 C.3      17        0    0.0000
    227 H         152.4923  158.4541  101.9112 H        17        0    0.0000
    228 H         153.4978  159.4231  100.8324 H        17        0    0.0000
    229 H         154.4042  157.3004  102.5809 H        17        0    0.0000
    230 H         155.3520  158.3042  101.4819 H        17        0    0.0000
    231 H         154.0695  155.5968  101.0127 H        17        0    0.0000
    232 H         156.4357  155.4630  101.2251 H        17        0    0.0000
    233 H         156.7195  156.9385  100.3087 H        17        0    0.0000
    234 H         153.6201  156.0876   98.6719 H        17        0    0.0000
    235 H         154.5168  157.6197   98.7515 H        17        0    0.0000
    236 H         151.9639  156.8674  100.2753 H        17        0    0.0000
    237 H         152.6576  159.1924   98.3932 H        17        0    0.0000
    238 H         151.2617  159.2121   99.4648 H        17        0    0.0000
    239 C         152.8024  154.7775   99.2896 C.3      18        0    0.0000
    240 C         152.9175  155.9852   98.3562 C.3      18        0    0.0000
    241 C         151.4990  156.2737   97.8328 C.3      18        0    0.0000
    242 C         151.1060  157.7558   97.8668 C.3      18        0    0.0000
    243 C         150.5860  155.4078   98.7068 C.3      18        0    0.0000
    244 C         151.4229  154.1643   99.0254 C.3      18        0    0.0000
    245 C         151.4246  153.1454   97.8700 C.3      18        0    0.0000
    246 H         153.6310  154.0763   99.1525 H        18        0    0.0000
    247 H         152.8469  155.1287  100.3285 H        18        0    0.0000
    248 H         153.3537  156.8342   98.8938 H        18        0    0.0000
    249 H         153.5844  155.7563   97.5167 H        18        0    0.0000
    250 H         151.4312  155.9056   96.7991 H        18        0    0.0000
    251 H         151.2756  158.1992   96.8783 H        18        0    0.0000
    252 H         150.0371  157.8636   98.0841 H        18        0    0.0000
    253 H         149.6434  155.1686   98.2039 H        18        0    0.0000
    254 H         150.3404  155.9322   99.6394 H        18        0    0.0000
    255 H         151.0383  153.6849   99.9345 H        18        0    0.0000
    256 H         152.4226  152.7190   97.7197 H        18        0    0.0000
    257 H         151.1511  153.6526   96.9371 H        18        0    0.0000
    258 C         146.9272  151.5172   99.3172 C.3      19        0    0.0000
    259 C         147.8266  151.8982   98.1388 C.3      19        0    0.0000
    260 C         149.1039  152.5114   98.7403 C.3      19        0    0.0000
    261 C         150.4046  151.9953   98.1127 C.3      19        0    0.0000
    262 C         149.0120  152.1940  100.2363 C.3      19        0    0.0000
    263 C         147.5113  152.2236  100.5455 C.3      19        0    0.0000
    264 C         146.9777  153.6568  100.7304 C.3      19        0    0.0000
    265 H         145.8782  151.7614   99.1246 H        19        0    0.0000
    266 H         146.9822  150.4312   99.4668 H        19        0    0.0000
    267 H         148.0281  151.0165   97.5206 H        19        0    0.0000
    268 H         147.3260  152.6346   97.4993 H        19        0    0.0000
    269 H         149.0527  153.6029   98.6192 H        19        0    0.0000
    270 H         150.8638  151.2586   98.7827 H        19        0    0.0000
    271 H         150.1958  151.4792   97.1685 H        19        0    0.0000
    272 H         149.5849  152.9036  100.8420 H        19        0    0.0000
    273 H         149.4075  151.1903  100.4390 H        19        0    0.0000
    274 H         147.3110  151.6393  101.4526 H        19        0    0.0000
    275 H         146.5964  154.0620   99.7866 H        19        0    0.0000
    276 H         147.7968  154.3116  101.0505 H        19        0    0.0000
    277 C         145.8570  153.7211  101.8083 C.3      20        0    0.0000
    278 C         144.4499  153.4382  101.2630 C.3      20        0    0.0000
    279 H         146.0928  152.9537  102.5567 H        20        0    0.0000
    280 H         145.8974  154.6866  102.3261 H        20        0    0.0000
    281 H         143.6816  153.9422  101.8609 H        20        0    0.0000
    282 H         144.3860  153.8586  100.2512 H        20        0    0.0000
    283 C         146.1065  149.3572   99.4237 C.3      21        0    0.0000
    284 C         145.8533  150.8525   99.6093 C.3      21        0    0.0000
    285 C         145.3688  151.0414  101.0572 C.3      21        0    0.0000
    286 C         144.1086  151.9126  101.1416 C.3      21        0    0.0000
    287 C         145.1809  149.6148  101.5960 C.3      21        0    0.0000
    288 C         146.2065  148.7670  100.8327 C.3      21        0    0.0000
    289 C         147.6391  148.8580  101.3890 C.3      21        0    0.0000
    290 H         145.2464  148.9132   98.9063 H        21        0    0.0000
    291 H         146.9899  149.1627   98.8075 H        21        0    0.0000
    292 H         145.1318  151.2126   98.8677 H        21        0    0.0000
    293 H         146.7812  151.4159   99.4556 H        21        0    0.0000
    294 H         146.1774  151.5258  101.6227 H        21        0    0.0000
    295 H         143.4887  151.6043  101.9916 H        21        0    0.0000
    296 H         143.5043  151.7636  100.2387 H        21        0    0.0000
    297 H         145.3065  149.5664  102.6820 H        21        0    0.0000
    298 H         144.1713  149.2504  101.3654 H        21        0    0.0000
    299 H         145.8911  147.7159  100.8163 H        21        0    0.0000
    300 H         147.7945  149.7943  101.9357 H        21        0    0.0000
    301 H         148.3508  148.8609  100.5545 H        21        0    0.0000
    302 C         146.5641  145.5564  104.9667 C.3      22        0    0.0000
    303 C         147.1903  146.9060  104.6186 C.3      22        0    0.0000
    304 C         146.7885  147.2171  103.1664 C.3      22        0    0.0000
    305 C         147.9849  147.6548  102.3113 C.3      22        0    0.0000
    306 C         146.0981  145.9378  102.6690 C.3      22        0    0.0000
    307 C         145.4705  145.3157  103.9229 C.3      22        0    0.0000
    308 C         144.1327  145.9528  104.3409 C.3      22        0    0.0000
    309 H         147.3299  144.7755  104.8741 H        22        0    0.0000
    310 H         146.1956  145.5271  105.9969 H        22        0    0.0000
    311 H         148.2758  146.8719  104.7628 H        22        0    0.0000
    312 H         146.8015  147.6867  105.2830 H        22        0    0.0000
    313 H         146.0480  148.0292  103.1883 H        22        0    0.0000
    314 H         148.3463  146.8165  101.7043 H        22        0    0.0000
    315 H         148.8118  147.9489  102.9690 H        22        0    0.0000
    316 H         145.3678  146.1455  101.8809 H        22        0    0.0000
    317 H         146.8390  145.2414  102.2552 H        22        0    0.0000
    318 H         145.3279  144.2371  103.7790 H        22        0    0.0000
    319 H         144.0775  147.0015  104.0299 H        22        0    0.0000
    320 H         144.0562  145.9462  105.4350 H        22        0    0.0000
    321 C         141.2372  141.8848  104.1287 C.3      23        0    0.0000
    322 C         141.3781  143.3091  104.6714 C.3      23        0    0.0000
    323 C         142.8143  143.7616  104.3523 C.3      23        0    0.0000
    324 C         142.9125  145.1767  103.7693 C.3      23        0    0.0000
    325 C         143.3456  142.6955  103.3888 C.3      23        0    0.0000
    326 C         142.6602  141.3986  103.8325 C.3      23        0    0.0000
    327 C         143.3477  140.7587  105.0535 C.3      23        0    0.0000
    328 H         140.6844  141.2392  104.8176 H        23        0    0.0000
    329 H         140.6665  141.9187  103.1918 H        23        0    0.0000
    330 H         140.6178  143.9580  104.2229 H        23        0    0.0000
    331 H         141.2161  143.3219  105.7555 H        23        0    0.0000
    332 H         143.4057  143.7104  105.2777 H        23        0    0.0000
    333 H         143.0193  145.1140  102.6798 H        23        0    0.0000
    334 H         141.9911  145.7368  103.9664 H        23        0    0.0000
    335 H         144.4381  142.6288  103.4129 H        23        0    0.0000
    336 H         143.0505  142.9310  102.3581 H        23        0    0.0000
    337 H         142.6532  140.6829  103.0006 H        23        0    0.0000
    338 H         142.6328  140.1875  105.6561 H        23        0    0.0000
    339 H         143.7500  141.5480  105.6998 H        23        0    0.0000
    340 C         142.6942  137.0019  102.8744 C.3      24        0    0.0000
    341 C         142.6717  138.3198  103.6361 C.3      24        0    0.0000
    342 C         144.1418  138.7511  103.6162 C.3      24        0    0.0000
    343 C         144.5241  139.8306  104.6334 C.3      24        0    0.0000
    344 C         144.9501  137.4416  103.7016 C.3      24        0    0.0000
    345 C         143.9423  136.3077  103.4294 C.3      24        0    0.0000
    346 C         144.4724  135.1400  102.5917 C.3      24        0    0.0000
    347 H         141.7866  136.4150  103.0461 H        24        0    0.0000
    348 H         142.7749  137.1972  101.7994 H        24        0    0.0000
    349 H         142.0202  139.0575  103.1576 H        24        0    0.0000
    350 H         142.3052  138.1521  104.6548 H        24        0    0.0000
    351 H         144.3356  139.1775  102.6203 H        24        0    0.0000
    352 H         144.9307  139.3492  105.5306 H        24        0    0.0000
    353 H         145.3280  140.4482  104.2155 H        24        0    0.0000
    354 H         145.4144  137.2911  104.6822 H        24        0    0.0000
    355 H         145.7680  137.4681  102.9735 H        24        0    0.0000
    356 H         143.6655  135.8892  104.4089 H        24        0    0.0000
    357 H         143.6407  134.6923  102.0349 H        24        0    0.0000
    358 H         145.1791  135.5249  101.8469 H        24        0    0.0000
    359 C         143.3214  131.3948  105.3891 C.3      25        0    0.0000
    360 C         143.8665  131.9530  104.0834 C.3      25        0    0.0000
    361 C         144.2479  133.3870  104.4566 C.3      25        0    0.0000
    362 C         145.1773  134.0250  103.4211 C.3      25        0    0.0000
    363 C         144.8519  133.2501  105.8662 C.3      25        0    0.0000
    364 C         144.2975  131.9315  106.4437 C.3      25        0    0.0000
    365 C         143.7378  132.0210  107.8691 C.3      25        0    0.0000
    366 H         143.2870  130.3008  105.3829 H        25        0    0.0000
    367 H         142.3011  131.7610  105.5462 H        25        0    0.0000
    368 H         144.7453  131.3802  103.7630 H        25        0    0.0000
    369 H         143.1233  131.9179  103.2809 H        25        0    0.0000
    370 H         143.3247  133.9795  104.5350 H        25        0    0.0000
    371 H         146.0611  134.4462  103.9148 H        25        0    0.0000
    372 H         145.5397  133.2511  102.7340 H        25        0    0.0000
    373 H         145.9465  133.1891  105.8247 H        25        0    0.0000
    374 H         144.6062  134.1241  106.4786 H        25        0    0.0000
    375 H         145.1425  131.2281  106.4866 H        25        0    0.0000
    376 H         143.4715  131.0146  108.2133 H        25        0    0.0000
    377 H         142.8084  132.6027  107.8504 H        25        0    0.0000
    378 C         147.7643  134.3077  107.5848 C.3      26        0    0.0000
    379 C         146.4555  133.5909  107.2441 C.3      26        0    0.0000
    380 C         146.1612  132.6331  108.4126 C.3      26        0    0.0000
    381 C         144.7077  132.6654  108.9009 C.3      26        0    0.0000
    382 C         147.1529  133.0469  109.5046 C.3      26        0    0.0000
    383 C         148.3933  133.5210  108.7398 C.3      26        0    0.0000
    384 C         149.2743  132.3496  108.2655 C.3      26        0    0.0000
    385 H         148.4151  134.4047  106.7105 H        26        0    0.0000
    386 H         147.5315  135.3243  107.9268 H        26        0    0.0000
    387 H         145.6574  134.3240  107.0834 H        26        0    0.0000
    388 H         146.5637  133.0208  106.3140 H        26        0    0.0000
    389 H         146.4123  131.6116  108.0929 H        26        0    0.0000
    390 H         144.6293  132.1125  109.8446 H        26        0    0.0000
    391 H         144.3966  133.6955  109.1094 H        26        0    0.0000
    392 H         147.3677  132.2257  110.1961 H        26        0    0.0000
    393 H         146.7465  133.8789  110.0942 H        26        0    0.0000
    394 H         148.9861  134.1888  109.3778 H        26        0    0.0000
    395 H         150.2612  132.7012  107.9449 H        26        0    0.0000
    396 H         148.8079  131.8726  107.3954 H        26        0    0.0000
    397 C         149.4472  131.2712  109.3742 C.3      27        0    0.0000
    398 C         150.5773  130.2690  109.0987 C.3      27        0    0.0000
    399 H         149.6855  131.8064  110.3023 H        27        0    0.0000
    400 H         148.4927  130.7594  109.5438 H        27        0    0.0000
    401 H         150.2159  129.4086  108.5232 H        27        0    0.0000
    402 H         151.3310  130.7683  108.4765 H        27        0    0.0000
    403 C         150.1326  128.8936  113.8805 C.3      28        0    0.0000
    404 C         150.6340  128.4513  112.5143 C.3      28        0    0.0000
    405 C         150.4254  129.6922  111.6369 C.3      28        0    0.0000
    406 C         151.3145  129.7694  110.3893 C.3      28        0    0.0000
    407 C         150.5197  130.8994  112.5927 C.3      28        0    0.0000
    408 C         150.6885  130.3134  114.0064 C.3      28        0    0.0000
    409 C         149.9954  131.1084  115.1158 C.3      28        0    0.0000
    410 H         149.0359  128.8946  113.9004 H        28        0    0.0000
    411 H         150.4892  128.2370  114.6800 H        28        0    0.0000
    412 H         151.6898  128.1685  112.5857 H        28        0    0.0000
    413 H         150.0806  127.5858  112.1365 H        28        0    0.0000
    414 H         149.3868  129.6590  111.2753 H        28        0    0.0000
    415 H         152.1571  130.4406  110.5940 H        28        0    0.0000
    416 H         151.7423  128.7793  110.1925 H        28        0    0.0000
    417 H         149.5977  131.4889  112.5149 H        28        0    0.0000
    418 H         151.3482  131.5739  112.3523 H        28        0    0.0000
    419 H         151.7646  130.2439  114.2227 H        28        0    0.0000
    420 H         148.9290  131.2238  114.8887 H        28        0    0.0000
    421 H         150.0578  130.5479  116.0562 H        28        0    0.0000
    422 C         149.7443  135.2109  117.8540 C.3      29        0    0.0000
    423 C         149.7021  134.6632  116.4343 C.3      29        0    0.0000
    424 C         150.1787  133.2177  116.6114 C.3      29        0    0.0000
    425 C         150.6286  132.5120  115.3285 C.3      29        0    0.0000
    426 C         151.2244  133.2709  117.7423 C.3      29        0    0.0000
    427 C         151.0676  134.6587  118.3941 C.3      29        0    0.0000
    428 C         151.2217  134.6939  119.9177 C.3      29        0    0.0000
    429 H         149.7177  136.3048  117.8711 H        29        0    0.0000
    430 H         148.8819  134.8406  118.4192 H        29        0    0.0000
    431 H         148.6965  134.7150  116.0058 H        29        0    0.0000
    432 H         150.3753  135.2435  115.7937 H        29        0    0.0000
    433 H         149.3228  132.6450  116.9992 H        29        0    0.0000
    434 H         150.3821  133.1439  114.4670 H        29        0    0.0000
    435 H         151.7200  132.4078  115.3407 H        29        0    0.0000
    436 H         152.2508  133.1510  117.3790 H        29        0    0.0000
    437 H         151.0471  132.4486  118.4438 H        29        0    0.0000
    438 H         151.8686  135.2925  117.9844 H        29        0    0.0000
    439 H         151.6142  135.6734  120.2153 H        29        0    0.0000
    440 H         150.2323  134.5971  120.3803 H        29        0    0.0000
    441 C         151.7834  133.6552  124.2469 C.3      30        0    0.0000
    442 C         151.2298  133.8500  122.8437 C.3      30        0    0.0000
    443 C         152.4857  133.8058  121.9707 C.3      30        0    0.0000
    444 C         152.1537  133.5854  120.4928 C.3      30        0    0.0000
    445 C         153.3382  132.6954  122.6118 C.3      30        0    0.0000
    446 C         152.8417  132.5597  124.0660 C.3      30        0    0.0000
    447 C         153.9402  132.5268  125.1361 C.3      30        0    0.0000
    448 H         151.0043  133.3579  124.9558 H        30        0    0.0000
    449 H         152.2186  134.5954  124.6026 H        30        0    0.0000
    450 H         150.5424  133.0339  122.5900 H        30        0    0.0000
    451 H         150.6897  134.7965  122.7441 H        30        0    0.0000
    452 H         153.0203  134.7597  122.0881 H        30        0    0.0000
    453 H         153.0753  133.5450  119.9001 H        30        0    0.0000
    454 H         151.6600  132.6136  120.3734 H        30        0    0.0000
    455 H         153.1960  131.7379  122.0954 H        30        0    0.0000
    456 H         154.4038  132.9376  122.5425 H        30        0    0.0000
    457 H         152.3185  131.5940  124.1299 H        30        0    0.0000
    458 H         154.1668  133.5531  125.4486 H        30        0    0.0000
    459 H         154.8581  132.1241  124.6914 H        30        0    0.0000
    460 C         156.5990  129.4963  127.0922 C.3      31        0    0.0000
    461 C         155.1229  129.6282  126.7498 C.3      31        0    0.0000
    462 C         154.7984  131.0819  127.1161 C.3      31        0    0.0000
    463 C         153.5859  131.6842  126.3950 C.3      31        0    0.0000
    464 C         156.1206  131.8590  126.9500 C.3      31        0    0.0000
    465 C         157.1882  130.8127  126.5813 C.3      31        0    0.0000
    466 C         158.5788  131.0857  127.1601 C.3      31        0    0.0000
    467 H         156.7300  129.3984  128.1767 H        31        0    0.0000
    468 H         157.0547  128.6249  126.6119 H        31        0    0.0000
    469 H         154.9753  129.4280  125.6830 H        31        0    0.0000
    470 H         154.5082  128.9180  127.3117 H        31        0    0.0000
    471 H         154.5588  131.0967  128.1898 H        31        0    0.0000
    472 H         152.9110  130.8734  126.0960 H        31        0    0.0000
    473 H         153.0278  132.3142  127.0978 H        31        0    0.0000
    474 H         156.3633  132.3569  127.8970 H        31        0    0.0000
    475 H         156.0659  132.6413  126.1856 H        31        0    0.0000
    476 H         157.2516  130.7589  125.4847 H        31        0    0.0000
    477 H         159.3503  130.8520  126.4169 H        31        0    0.0000
    478 H         158.6735  132.1544  127.3865 H        31        0    0.0000
    479 C         158.8547  130.2744  128.4571 C.3      32        0    0.0000
    480 C         159.6248  131.0569  129.5304 C.3      32        0    0.0000
    481 H         157.8769  129.9989  128.8725 H        32        0    0.0000
    482 H         159.3636  129.3367  128.2051 H        32        0    0.0000
    483 H         160.6844  131.1570  129.2678 H        32        0    0.0000
    484 H         159.2141  132.0740  129.5706 H        32        0    0.0000
    485 C         161.2527  131.9494  133.8283 C.3      33        0    0.0000
    486 C         161.0458  131.9758  132.3147 C.3      33        0    0.0000
    487 C         159.5935  131.5363  132.0603 C.3      33        0    0.0000
    488 C         159.4923  130.4580  130.9735 C.3      33        0    0.0000
    489 C         159.0735  131.0899  133.4355 C.3      33        0    0.0000
    490 C         159.8523  131.9409  134.4466 C.3      33        0    0.0000
    491 C         159.3004  133.3667  134.6285 C.3      33        0    0.0000
    492 H         161.7727  131.0215  134.0991 H        33        0    0.0000
    493 H         161.8750  132.7811  134.1732 H        33        0    0.0000
    494 H         161.7795  131.3319  131.8175 H        33        0    0.0000
    495 H         161.1953  132.9914  131.9295 H        33        0    0.0000
    496 H         159.0247  132.4209  131.7409 H        33        0    0.0000
    497 H         158.5439  129.9155  131.0622 H        33        0    0.0000
    498 H         160.2925  129.7222  131.1179 H        33        0    0.0000
    499 H         157.9887  131.2059  133.5215 H        33        0    0.0000
    500 H         159.3050  130.0302  133.6046 H        33        0    0.0000
    501 H         159.8817  131.4375  135.4214 H        33        0    0.0000
    502 H         159.7332  134.0568  133.8965 H        33        0    0.0000
    503 H         159.5866  133.7407  135.6190 H        33        0    0.0000
    504 C         155.6691  136.3336  133.3632 C.3      34        0    0.0000
    505 C         156.4443  135.0522  133.0973 C.3      34        0    0.0000
    506 C         157.2079  134.8359  134.4055 C.3      34        0    0.0000
    507 C         157.7492  133.4095  134.5287 C.3      34        0    0.0000
    508 C         156.1929  135.2356  135.4921 C.3      34        0    0.0000
    509 C         155.1659  136.1563  134.8014 C.3      34        0    0.0000
    510 C         154.8419  137.4571  135.5471 C.3      34        0    0.0000
    511 H         154.8451  136.4669  132.6553 H        34        0    0.0000
    512 H         156.3392  137.1943  133.2631 H        34        0    0.0000
    513 H         155.7527  134.2238  132.9010 H        34        0    0.0000
    514 H         157.1148  135.1499  132.2380 H        34        0    0.0000
    515 H         158.0441  135.5495  134.4381 H        34        0    0.0000
    516 H         157.3170  132.9154  135.4069 H        34        0    0.0000
    517 H         157.4366  132.8266  133.6541 H        34        0    0.0000
    518 H         155.6721  134.3563  135.8912 H        34        0    0.0000
    519 H         156.6993  135.7144  136.3368 H        34        0    0.0000
    520 H         154.2247  135.5894  134.7447 H        34        0    0.0000
    521 H         153.7645  137.4967  135.7467 H        34        0    0.0000
    522 H         155.0720  138.3079  134.8947 H        34        0    0.0000
    523 C         153.6912  139.8889  139.2290 C.3      35        0    0.0000
    524 C         153.7702  139.0342  137.9614 C.3      35        0    0.0000
    525 C         155.2565  138.9517  137.5896 C.3      35        0    0.0000
    526 C         155.6090  137.6368  136.8886 C.3      35        0    0.0000
    527 C         155.9637  139.1695  138.9314 C.3      35        0    0.0000
    528 C         155.1330  140.2873  139.5704 C.3      35        0    0.0000
    529 C         155.3479  140.4608  141.0764 C.3      35        0    0.0000
    530 H         153.0647  140.7744  139.0762 H        35        0    0.0000
    531 H         153.2348  139.3035  140.0361 H        35        0    0.0000
    532 H         153.1852  139.4727  137.1458 H        35        0    0.0000
    533 H         153.3515  138.0411  138.1640 H        35        0    0.0000
    534 H         155.4917  139.7980  136.9278 H        35        0    0.0000
    535 H         155.3597  136.7969  137.5481 H        35        0    0.0000
    536 H         156.6880  137.5826  136.7021 H        35        0    0.0000
    537 H         157.0102  139.4620  138.7994 H        35        0    0.0000
    538 H         155.9343  138.2593  139.5434 H        35        0    0.0000
    539 H         155.3591  141.2315  139.0536 H        35        0    0.0000
    540 H         156.3894  140.7336  141.2831 H        35        0    0.0000
    541 H         155.1657  139.5041  141.5806 H        35        0    0.0000
    542 C         152.2869  140.0323  144.4689 C.3      36        0    0.0000
    543 C         153.0128  139.8931  143.1380 C.3      36        0    0.0000
    544 C         153.8584  141.1694  143.0749 C.3      36        0    0.0000
    545 C         154.4021  141.5299  141.6891 C.3      36        0    0.0000
    546 C         153.0044  142.2561  143.7570 C.3      36        0    0.0000
    547 C         151.8665  141.5057  144.4764 C.3      36        0    0.0000
    548 C         151.4655  142.0680  145.8436 C.3      36        0    0.0000
    549 H         151.4270  139.3589  144.5379 H        36        0    0.0000
    550 H         152.9717  139.7950  145.2905 H        36        0    0.0000
    551 H         153.6289  138.9894  143.1010 H        36        0    0.0000
    552 H         152.2833  139.8413  142.3223 H        36        0    0.0000
    553 H         154.7340  141.0041  143.7208 H        36        0    0.0000
    554 H         153.5604  141.6893  141.0047 H        36        0    0.0000
    555 H         154.9414  142.4824  141.7523 H        36        0    0.0000
    556 H         152.5784  142.9717  143.0455 H        36        0    0.0000
    557 H         153.6308  142.8374  144.4422 H        36        0    0.0000
    558 H         150.9778  141.5869  143.8324 H        36        0    0.0000
    559 H         150.9275  143.0123  145.6985 H        36        0    0.0000
    560 H         150.7636  141.3761  146.3239 H        36        0    0.0000
    561 C         152.4537  145.8917  147.7853 C.3      37        0    0.0000
    562 C         152.0210  144.8160  146.7859 C.3      37        0    0.0000
    563 C         153.1498  143.7702  146.7488 C.3      37        0    0.0000
    564 C         152.6626  142.3172  146.8096 C.3      37        0    0.0000
    565 C         154.0475  144.1347  147.9356 C.3      37        0    0.0000
    566 C         153.9470  145.6602  148.0410 C.3      37        0    0.0000
    567 C         154.8539  146.3803  147.0251 C.3      37        0    0.0000
    568 H         152.2178  146.8985  147.4277 H        37        0    0.0000
    569 H         151.9015  145.7457  148.7225 H        37        0    0.0000
    570 H         151.0569  144.3913  147.0865 H        37        0    0.0000
    571 H         151.8858  145.2531  145.7897 H        37        0    0.0000
    572 H         153.7276  143.9191  145.8254 H        37        0    0.0000
    573 H         153.4831  141.6470  146.5270 H        37        0    0.0000
    574 H         152.3744  142.0525  147.8334 H        37        0    0.0000
    575 H         155.0753  143.7850  147.7949 H        37        0    0.0000
    576 H         153.6653  143.6783  148.8579 H        37        0    0.0000
    577 H         154.2134  145.9772  149.0573 H        37        0    0.0000
    578 H         154.3131  146.6003  146.0981 H        37        0    0.0000
    579 H         155.6919  145.7258  146.7574 H        37        0    0.0000
    580 C         158.4845  147.2134  149.8042 C.3      38        0    0.0000
    581 C         157.6106  146.7489  148.6491 C.3      38        0    0.0000
    582 C         156.2984  147.5142  148.8622 C.3      38        0    0.0000
    583 C         155.4375  147.7008  147.6064 C.3      38        0    0.0000
    584 C         156.6878  148.8135  149.5967 C.3      38        0    0.0000
    585 C         158.2005  148.7156  149.8662 C.3      38        0    0.0000
    586 C         158.6564  149.3349  151.1897 C.3      38        0    0.0000
    587 H         158.1826  146.7147  150.7332 H        38        0    0.0000
    588 H         159.5432  146.9993  149.6287 H        38        0    0.0000
    589 H         158.0907  147.0084  147.6994 H        38        0    0.0000
    590 H         157.4586  145.6651  148.6621 H        38        0    0.0000
    591 H         155.6936  146.9246  149.5672 H        38        0    0.0000
    592 H         154.6074  148.3776  147.8414 H        38        0    0.0000
    593 H         156.0360  148.1950  146.8319 H        38        0    0.0000
    594 H         156.1211  148.8772  150.5340 H        38        0    0.0000
    595 H         156.4550  149.7172  149.0238 H        38        0    0.0000
    596 H         158.7296  149.2007  149.0330 H        38        0    0.0000
    597 H         158.3873  148.6796  152.0265 H        38        0    0.0000
    598 H         159.7499  149.4172  151.1936 H        38        0    0.0000
    599 C         159.3027  153.5487  153.6681 C.3      39        0    0.0000
    600 C         158.2470  152.9740  152.7340 C.3      39        0    0.0000
    601 C         158.6665  151.5059  152.6062 C.3      39        0    0.0000
    602 C         158.0491  150.7459  151.4284 C.3      39        0    0.0000
    603 C         160.2069  151.5184  152.6549 C.3      39        0    0.0000
    604 C         160.6002  152.9270  153.1411 C.3      39        0    0.0000
    605 C         161.7938  152.9856  154.0992 C.3      39        0    0.0000
    606 H         159.3272  154.6423  153.6338 H        39        0    0.0000
    607 H         159.0894  153.2453  154.6989 H        39        0    0.0000
    608 H         157.2377  153.0792  153.1438 H        39        0    0.0000
    609 H         158.2798  153.4973  151.7720 H        39        0    0.0000
    610 H         158.3257  150.9962  153.5201 H        39        0    0.0000
    611 H         156.9705  150.6414  151.5956 H        39        0    0.0000
    612 H         158.1701  151.3405  150.5151 H        39        0    0.0000
    613 H         160.6652  151.3269  151.6786 H        39        0    0.0000
    614 H         160.5585  150.7241  153.3221 H        39        0    0.0000
    615 H         160.8886  153.5007  152.2473 H        39        0    0.0000
    616 H         161.8200  152.0656  154.6952 H        39        0    0.0000
    617 H         162.7215  153.0091  153.5152 H        39        0    0.0000
    618 C         164.9163  156.1438  154.6336 C.3      40        0    0.0000
    619 C         164.1683  154.8442  154.3265 C.3      40        0    0.0000
    620 C         163.1961  154.6089  155.4964 C.3      40        0    0.0000
    621 C         161.7798  154.2079  155.0657 C.3      40        0    0.0000
    622 C         163.2167  155.9248  156.2807 C.3      40        0    0.0000
    623 C         164.6450  156.4534  156.1099 C.3      40        0    0.0000
    624 C         165.6423  155.7704  157.0649 C.3      40        0    0.0000
    625 H         165.9795  156.0702  154.3860 H        40        0    0.0000
    626 H         164.4969  156.9474  154.0147 H        40        0    0.0000
    627 H         163.6593  154.9243  153.3596 H        40        0    0.0000
    628 H         164.8722  154.0070  154.2535 H        40        0    0.0000
    629 H         163.6146  153.8216  156.1396 H        40        0    0.0000
    630 H         161.1918  153.9434  155.9526 H        40        0    0.0000
    631 H         161.2712  155.0530  154.5877 H        40        0    0.0000
    632 H         162.9391  155.7812  157.3300 H        40        0    0.0000
    633 H         162.5073  156.6404  155.8451 H        40        0    0.0000
    634 H         164.6591  157.5372  156.2811 H        40        0    0.0000
    635 H         166.6743  156.0494  156.8250 H        40        0    0.0000
    636 H         165.5711  154.6825  156.9482 H        40        0    0.0000
    637 C         162.0160  156.7775  160.0487 C.3      41        0    0.0000
    638 C         162.7923  156.1148  158.9081 C.3      41        0    0.0000
    639 C         164.0680  156.9505  158.7000 C.3      41        0    0.0000
    640 C         165.3477  156.1181  158.5529 C.3      41        0    0.0000
    641 C         164.1154  157.8838  159.9141 C.3      41        0    0.0000
    642 C         162.6451  158.1612  160.2451 C.3      41        0    0.0000
    643 C         162.0311  159.2404  159.3333 C.3      41        0    0.0000
    644 H         160.9409  156.8058  159.8473 H        41        0    0.0000
    645 H         162.1565  156.1856  160.9622 H        41        0    0.0000
    646 H         163.0043  155.0691  159.1570 H        41        0    0.0000
    647 H         162.1940  156.1140  157.9894 H        41        0    0.0000
    648 H         163.9331  157.5677  157.8002 H        41        0    0.0000
    649 H         166.1973  156.6845  158.9527 H        41        0    0.0000
    650 H         165.2749  155.1966  159.1418 H        41        0    0.0000
    651 H         164.6844  158.7962  159.7080 H        41        0    0.0000
    652 H         164.5931  157.3802  160.7646 H        41        0    0.0000
    653 H         162.5567  158.4750  161.2930 H        41        0    0.0000
    654 H         160.9418  159.2789  159.4438 H        41        0    0.0000
    655 H         162.2364  158.9913  158.2854 H        41        0    0.0000
    656 C         164.7454  158.7690  161.9582 C.3      42        0    0.0000
    657 C         164.5534  159.2296  160.5141 C.3      42        0    0.0000
    658 C         163.8279  160.5849  160.5762 C.3      42        0    0.0000
    659 C         162.6279  160.6483  159.6221 C.3      42        0    0.0000
    660 C         163.4603  160.7641  162.0572 C.3      42        0    0.0000
    661 C         164.5538  160.0139  162.8283 C.3      42        0    0.0000
    662 C         165.8654  160.8035  162.9912 C.3      42        0    0.0000
    663 H         163.9676  158.0342  162.2026 H        42        0    0.0000
    664 H         165.7122  158.2784  162.1086 H        42        0    0.0000
    665 H         164.0006  158.4757  159.9430 H        42        0    0.0000
    666 H         165.5261  159.3554  160.0240 H        42        0    0.0000
    667 H         164.5489  161.3662  160.2970 H        42        0    0.0000
    668 H         162.9159  161.1275  158.6792 H        42        0    0.0000
    669 H         161.8438  161.2722  160.0677 H        42        0    0.0000
    670 H         163.3848  161.8195  162.3365 H        42        0    0.0000
    671 H         162.4888  160.2982  162.2677 H        42        0    0.0000
    672 H         164.1838  159.7192  163.8186 H        42        0    0.0000
    673 H         165.9043  161.6556  162.3041 H        42        0    0.0000
    674 H         166.7115  160.1548  162.7338 H        42        0    0.0000
    675 C         166.0691  161.3027  164.4497 C.3      43        0    0.0000
    676 C         167.0312  160.4379  165.2765 C.3      43        0    0.0000
    677 H         166.4920  162.3133  164.3825 H        43        0    0.0000
    678 H         165.0963  161.4025  164.9453 H        43        0    0.0000
    679 H         167.5620  159.7161  164.6446 H        43        0    0.0000
    680 H         167.7947  161.0968  165.7095 H        43        0    0.0000
    681 C         164.4753  161.0463  169.4896 C.3      44        0    0.0000
    682 C         165.6883  160.3492  168.8896 C.3      44        0    0.0000
    683 C         165.5145  160.5939  167.3870 C.3      44        0    0.0000
    684 C         166.3474  159.6900  166.4731 C.3      44        0    0.0000
    685 C         163.9929  160.5632  167.1443 C.3      44        0    0.0000
    686 C         163.3434  160.6404  168.5399 C.3      44        0    0.0000
    687 C         162.0724  161.4904  168.6307 C.3      44        0    0.0000
    688 H         164.2851  160.7231  170.5178 H        44        0    0.0000
    689 H         164.6376  162.1297  169.4980 H        44        0    0.0000
    690 H         166.6274  160.7648  169.2680 H        44        0    0.0000
    691 H         165.6633  159.2827  169.1391 H        44        0    0.0000
    692 H         165.8449  161.6253  167.1916 H        44        0    0.0000
    693 H         167.1236  159.1957  167.0693 H        44        0    0.0000
    694 H         165.7055  158.8968  166.0719 H        44        0    0.0000
    695 H         163.6611  159.6514  166.6361 H        44        0    0.0000
    696 H         163.7088  161.3990  166.4957 H        44        0    0.0000
    697 H         163.0529  159.6140  168.8103 H        44        0    0.0000
    698 H         161.3820  161.1883  167.8342 H        44        0    0.0000
    699 H         161.5679  161.2803  169.5813 H        44        0    0.0000
    700 C         159.0571  164.1638  170.0365 C.3      45        0    0.0000
    701 C         159.9187  163.0876  169.3707 C.3      45        0    0.0000
    702 C         161.0200  163.8313  168.6038 C.3      45        0    0.0000
    703 C         162.3194  163.0252  168.5236 C.3      45        0    0.0000
    704 C         161.1372  165.1578  169.3617 C.3      45        0    0.0000
    705 C         159.6736  165.5128  169.6441 C.3      45        0    0.0000
    706 C         159.4728  166.5805  170.7231 C.3      45        0    0.0000
    707 H         158.0134  164.0992  169.7105 H        45        0    0.0000
    708 H         159.0674  164.0188  171.1234 H        45        0    0.0000
    709 H         159.3255  162.4605  168.6965 H        45        0    0.0000
    710 H         160.3398  162.4295  170.1402 H        45        0    0.0000
    711 H         160.6505  164.0386  167.5889 H        45        0    0.0000
    712 H         162.9848  163.3291  169.3405 H        45        0    0.0000
    713 H         162.8465  163.2456  167.5880 H        45        0    0.0000
    714 H         161.6368  165.9273  168.7645 H        45        0    0.0000
    715 H         161.6974  165.0282  170.2962 H        45        0    0.0000
    716 H         159.2055  165.8434  168.7054 H        45        0    0.0000
    717 H         160.1874  167.4002  170.5847 H        45        0    0.0000
    718 H         159.6797  166.1437  171.7075 H        45        0    0.0000
    719 C         155.1773  164.7205  170.1584 C.3      46        0    0.0000
    720 C         156.5323  165.0339  170.7744 C.3      46        0    0.0000
    721 C         156.9987  166.2747  170.0025 C.3      46        0    0.0000
    722 C         158.0276  167.1500  170.7293 C.3      46        0    0.0000
    723 C         155.7106  166.9980  169.5581 C.3      46        0    0.0000
    724 C         154.5409  166.1038  170.0083 C.3      46        0    0.0000
    725 C         153.3435  166.0878  169.0549 C.3      46        0    0.0000
    726 H         155.3066  164.2363  169.1827 H        46        0    0.0000
    727 H         154.5819  164.0577  170.7937 H        46        0    0.0000
    728 H         156.4104  165.2344  171.8443 H        46        0    0.0000
    729 H         157.2323  164.1992  170.6680 H        46        0    0.0000
    730 H         157.4897  165.9167  169.0853 H        46        0    0.0000
    731 H         158.0401  168.1436  170.2657 H        46        0    0.0000
    732 H         157.7069  167.2921  171.7681 H        46        0    0.0000
    733 H         155.7247  167.1136  168.4671 H        46        0    0.0000
    734 H         155.6143  168.0031  169.9819 H        46        0    0.0000
    735 H         154.2136  166.4418  171.0023 H        46        0    0.0000
    736 H         153.5442  165.4226  168.2067 H        46        0    0.0000
    737 H         152.4705  165.6778  169.5766 H        46        0    0.0000
    738 C         155.1374  169.4513  170.9767 C.3      47        0    0.0000
    739 C         154.9778  168.3333  169.9558 C.3      47        0    0.0000
    740 C         153.6261  168.6521  169.3086 C.3      47        0    0.0000
    741 C         152.9867  167.5038  168.5219 C.3      47        0    0.0000
    742 C         152.7634  169.2431  170.4408 C.3      47        0    0.0000
    743 C         153.7385  169.5532  171.5934 C.3      47        0    0.0000
    744 C         153.4546  170.8428  172.3697 C.3      47        0    0.0000
    745 H         155.9005  169.2157  171.7249 H        47        0    0.0000
    746 H         155.4325  170.3763  170.4693 H        47        0    0.0000
    747 H         155.7925  168.3277  169.2251 H        47        0    0.0000
    748 H         154.9719  167.3641  170.4664 H        47        0    0.0000
    749 H         153.8014  169.4650  168.5878 H        47        0    0.0000
    750 H         151.8967  167.6220  168.5383 H        47        0    0.0000
    751 H         153.2953  167.5731  167.4721 H        47        0    0.0000
    752 H         151.9898  168.5517  170.7919 H        47        0    0.0000
    753 H         152.2394  170.1329  170.0754 H        47        0    0.0000
    754 H         153.6472  168.7275  172.3152 H        47        0    0.0000
    755 H         152.6815  170.6451  173.1217 H        47        0    0.0000
    756 H         154.3578  171.1381  172.9166 H        47        0    0.0000
    757 C         149.6025  173.0351  172.8408 C.3      48        0    0.0000
    758 C         150.8423  172.1575  172.9192 C.3      48        0    0.0000
    759 C         151.4895  172.3273  171.5389 C.3      48        0    0.0000
    760 C         152.9947  172.0372  171.4809 C.3      48        0    0.0000
    761 C         151.0659  173.7273  171.0490 C.3      48        0    0.0000
    762 C         150.1126  174.2855  172.1214 C.3      48        0    0.0000
    763 C         148.9691  175.1449  171.5768 C.3      48        0    0.0000
    764 H         148.8194  172.5349  172.2581 H        48        0    0.0000
    765 H         149.1990  173.2635  173.8320 H        48        0    0.0000
    766 H         151.4918  172.5126  173.7265 H        48        0    0.0000
    767 H         150.5908  171.1127  173.1270 H        48        0    0.0000
    768 H         151.0083  171.6011  170.8669 H        48        0    0.0000
    769 H         153.2773  171.8305  170.4418 H        48        0    0.0000
    770 H         153.5447  172.9363  171.7829 H        48        0    0.0000
    771 H         150.5596  173.6285  170.0807 H        48        0    0.0000
    772 H         151.9136  174.4035  170.8957 H        48        0    0.0000
    773 H         150.7065  174.8750  172.8351 H        48        0    0.0000
    774 H         149.2606  176.2018  171.5694 H        48        0    0.0000
    775 H         148.7707  174.8660  170.5350 H        48        0    0.0000
    776 C         146.3869  176.3976  175.0708 C.3      49        0    0.0000
    777 C         147.8313  176.2576  174.5825 C.3      49        0    0.0000
    778 C         147.9333  174.8852  173.9080 C.3      49        0    0.0000
    779 C         147.6578  174.9811  172.3955 C.3      49        0    0.0000
    780 C         146.9004  174.0648  174.6910 C.3      49        0    0.0000
    781 C         145.7227  175.0231  174.8858 C.3      49        0    0.0000
    782 C         144.8102  174.5981  176.0419 C.3      49        0    0.0000
    783 H         146.3800  176.7287  176.1155 H        49        0    0.0000
    784 H         145.8544  177.1568  174.4865 H        49        0    0.0000
    785 H         148.5021  176.2851  175.4506 H        49        0    0.0000
    786 H         148.1229  177.0840  173.9264 H        49        0    0.0000
    787 H         148.9374  174.4692  174.0612 H        49        0    0.0000
    788 H         147.0194  175.8512  172.2000 H        49        0    0.0000
    789 H         147.1093  174.1042  172.0352 H        49        0    0.0000
    790 H         147.3240  173.7802  175.6631 H        49        0    0.0000
    791 H         146.5970  173.1440  174.1839 H        49        0    0.0000
    792 H         145.1358  175.0446  173.9568 H        49        0    0.0000
    793 H         145.3405  174.6834  176.9975 H        49        0    0.0000
    794 H         144.5386  173.5427  175.9221 H        49        0    0.0000
    795 C         143.5072  175.4466  176.0925 C.3      50        0    0.0000
    796 C         142.5614  175.2086  174.9067 C.3      50        0    0.0000
    797 H         142.9793  175.1619  177.0116 H        50        0    0.0000
    798 H         143.7614  176.5083  176.1931 H        50        0    0.0000
    799 H         143.0933  174.7713  174.0536 H        50        0    0.0000
    800 H         141.8064  174.4743  175.2155 H        50        0    0.0000
    801 C         143.3603  179.3829  172.5743 C.3      51        0    0.0000
    802 C         143.0249  177.9019  172.6605 C.3      51        0    0.0000
    803 C         142.6789  177.6982  174.1410 C.3      51        0    0.0000
    804 C         141.7843  176.4897  174.4445 C.3      51        0    0.0000
    805 C         142.1442  179.0582  174.6352 C.3      51        0    0.0000
    806 C         142.2840  180.0295  173.4488 C.3      51        0    0.0000
    807 C         142.6418  181.4664  173.8365 C.3      51        0    0.0000
    808 H         144.3630  179.5694  172.9779 H        51        0    0.0000
    809 H         143.3319  179.7501  171.5438 H        51        0    0.0000
    810 H         142.1770  177.6797  172.0037 H        51        0    0.0000
    811 H         143.8647  177.2739  172.3469 H        51        0    0.0000
    812 H         143.6268  177.5225  174.6712 H        51        0    0.0000
    813 H         141.0665  176.7657  175.2262 H        51        0    0.0000
    814 H         141.1972  176.2453  173.5513 H        51        0    0.0000
    815 H         142.7457  179.3883  175.4913 H        51        0    0.0000
    816 H         141.1049  179.0126  174.9771 H        51        0    0.0000
    817 H         141.3374  180.0257  172.8890 H        51        0    0.0000
    818 H         143.7239  181.6223  173.7534 H        51        0    0.0000
    819 H         142.1689  182.1603  173.1315 H        51        0    0.0000
    820 C         141.6575  180.9146  178.3865 C.3      52        0    0.0000
    821 C         142.2070  180.1485  177.1801 C.3      52        0    0.0000
    822 C         141.4421  180.6582  175.9536 C.3      52        0    0.0000
    823 C         142.1815  181.8276  175.2767 C.3      52        0    0.0000
    824 C         140.0812  181.0305  176.5557 C.3      52        0    0.0000
    825 C         140.4253  181.6910  177.8930 C.3      52        0    0.0000
    826 C         139.2412  181.6882  178.8665 C.3      52        0    0.0000
    827 H         141.4146  180.2118  179.1916 H        52        0    0.0000
    828 H         142.4102  181.6085  178.7778 H        52        0    0.0000
    829 H         142.0011  179.0793  177.3167 H        52        0    0.0000
    830 H         143.2925  180.2561  177.0873 H        52        0    0.0000
    831 H         141.3210  179.8450  175.2265 H        52        0    0.0000
    832 H         143.0695  182.0827  175.8677 H        52        0    0.0000
    833 H         141.5579  182.7274  175.2460 H        52        0    0.0000
    834 H         139.4955  180.1169  176.7223 H        52        0    0.0000
    835 H         139.4854  181.6894  175.9171 H        52        0    0.0000
    836 H         140.7259  182.7303  177.6992 H        52        0    0.0000
    837 H         138.9170  182.7143  179.0756 H        52        0    0.0000
    838 H         139.5568  181.2534  179.8223 H        52        0    0.0000
    839 C         138.0412  180.8657  178.3155 C.3      53        0    0.0000
    840 C         137.0473  181.6913  177.4861 C.3      53        0    0.0000
    841 H         137.5068  180.4633  179.1856 H        53        0    0.0000
    842 H         138.4131  180.0033  177.7499 H        53        0    0.0000
    843 H         136.0550  181.5897  177.9438 H        53        0    0.0000
    844 H         137.2964  182.7587  177.5117 H        53        0    0.0000
    845 C         135.0972  177.9077  175.9563 C.3      54        0    0.0000
    846 C         135.3383  179.2945  176.5327 C.3      54        0    0.0000
    847 C         136.6596  179.7106  175.8830 C.3      54        0    0.0000
    848 C         136.9103  181.2163  175.9981 C.3      54        0    0.0000
    849 C         136.5393  179.1862  174.4404 C.3      54        0    0.0000
    850 C         135.4853  178.0606  174.4802 C.3      54        0    0.0000
    851 C         135.8834  176.7608  173.7695 C.3      54        0    0.0000
    852 H         134.0560  177.5915  176.0746 H        54        0    0.0000
    853 H         135.7294  177.1800  176.4765 H        54        0    0.0000
    854 H         134.5251  179.9720  176.2450 H        54        0    0.0000
    855 H         135.4011  179.2789  177.6251 H        54        0    0.0000
    856 H         137.4746  179.1643  176.3798 H        54        0    0.0000
    857 H         137.8165  181.4921  175.4460 H        54        0    0.0000
    858 H         136.0798  181.7586  175.5305 H        54        0    0.0000
    859 H         136.1944  179.9741  173.7593 H        54        0    0.0000
    860 H         137.5130  178.8501  174.0689 H        54        0    0.0000
    861 H         134.5985  178.4426  173.9528 H        54        0    0.0000
    862 H         135.3868  175.9165  174.2622 H        54        0    0.0000
    863 H         136.9620  176.6050  173.8908 H        54        0    0.0000
    864 C         131.8200  177.2165  172.7517 C.3      55        0    0.0000
    865 C         133.0903  176.4280  173.0312 C.3      55        0    0.0000
    866 C         134.0525  176.8971  171.9326 C.3      55        0    0.0000
    867 C         135.5434  176.7283  172.2517 C.3      55        0    0.0000
    868 C         133.6104  178.3311  171.5754 C.3      55        0    0.0000
    869 C         132.3499  178.6115  172.4139 C.3      55        0    0.0000
    870 C         131.2964  179.4759  171.7168 C.3      55        0    0.0000
    871 H         131.2820  176.7807  171.9009 H        55        0    0.0000
    872 H         131.1463  177.2272  173.6140 H        55        0    0.0000
    873 H         133.4583  176.6703  174.0340 H        55        0    0.0000
    874 H         132.9181  175.3478  172.9900 H        55        0    0.0000
    875 H         133.8538  176.2775  171.0455 H        55        0    0.0000
    876 H         135.8908  175.7755  171.8347 H        55        0    0.0000
    877 H         136.1100  177.5182  171.7444 H        55        0    0.0000
    878 H         133.3914  178.3799  170.5014 H        55        0    0.0000
    879 H         134.3826  179.0813  171.7756 H        55        0    0.0000
    880 H         132.6617  179.0973  173.3500 H        55        0    0.0000
    881 H         130.2895  179.1298  171.9788 H        55        0    0.0000
    882 H         131.3781  180.5081  172.0778 H        55        0    0.0000
    883 C         131.4521  179.4744  170.1702 C.3      56        0    0.0000
    884 C         130.1985  179.9411  169.4165 C.3      56        0    0.0000
    885 H         131.6617  178.4386  169.8739 H        56        0    0.0000
    886 H         132.3311  180.0653  169.8868 H        56        0    0.0000
    887 H         129.3253  179.7384  170.0498 H        56        0    0.0000
    888 H         130.2164  181.0237  169.2445 H        56        0    0.0000
    889 C         126.7925  178.3004  166.3378 C.3      57        0    0.0000
    890 C         128.2452  178.7554  166.1788 C.3      57        0    0.0000
    891 C         128.5974  179.5546  167.4462 C.3      57        0    0.0000
    892 C         129.9563  179.1945  168.0591 C.3      57        0    0.0000
    893 C         127.4341  179.2819  168.4052 C.3      57        0    0.0000
    894 C         126.2124  179.1221  167.4941 C.3      57        0    0.0000
    895 C         125.6342  180.4770  167.0436 C.3      57        0    0.0000
    896 H         126.2312  178.3954  165.4034 H        57        0    0.0000
    897 H         126.7832  177.2375  166.6118 H        57        0    0.0000
    898 H         128.8958  177.8867  166.0289 H        57        0    0.0000
    899 H         128.3500  179.3948  165.2945 H        57        0    0.0000
    900 H         128.5874  180.6245  167.1932 H        57        0    0.0000
    901 H         129.9965  178.1144  168.2441 H        57        0    0.0000
    902 H         130.7662  179.4270  167.3581 H        57        0    0.0000
    903 H         127.3134  180.0830  169.1418 H        57        0    0.0000
    904 H         127.6043  178.3479  168.9562 H        57        0    0.0000
    905 H         125.4359  178.5494  168.0170 H        57        0    0.0000
    906 H         126.0879  180.8077  166.1028 H        57        0    0.0000
    907 H         125.8675  181.2403  167.7954 H        57        0    0.0000
    908 C         124.0880  180.4184  166.8768 C.3      58        0    0.0000
    909 C         123.6223  179.6109  165.6568 C.3      58        0    0.0000
    910 H         123.6903  179.9339  167.7778 H        58        0    0.0000
    911 H         123.6792  181.4355  166.8616 H        58        0    0.0000
    912 H         124.3088  178.7841  165.4400 H        58        0    0.0000
    913 H         122.6522  179.1580  165.8984 H        58        0    0.0000
    914 C         120.2828  179.7076  163.7215 C.3      59        0    0.0000
    915 C         121.5422  178.8427  163.8223 C.3      59        0    0.0000
    916 C         122.6939  179.6803  163.2557 C.3      59        0    0.0000
    917 C         123.4097  180.4738  164.3650 C.3      59        0    0.0000
    918 C         121.9770  180.5494  162.2146 C.3      59        0    0.0000
    919 C         120.6616  180.9447  162.8905 C.3      59        0    0.0000
    920 C         119.5952  181.3817  161.8799 C.3      59        0    0.0000
    921 H         119.4721  179.1287  163.2647 H        59        0    0.0000
    922 H         119.9429  180.0111  164.7183 H        59        0    0.0000
    923 H         121.4065  177.9474  163.2025 H        59        0    0.0000
    924 H         121.7212  178.4991  164.8462 H        59        0    0.0000
    925 H         123.4217  179.0249  162.7605 H        59        0    0.0000
    926 H         122.8033  181.3480  164.6313 H        59        0    0.0000
    927 H         124.3755  180.8574  164.0190 H        59        0    0.0000
    928 H         121.7781  179.9504  161.3163 H        59        0    0.0000
    929 H         122.5543  181.4250  161.9029 H        59        0    0.0000
    930 H         120.8625  181.7766  163.5800 H        59        0    0.0000
    931 H         119.8110  182.3909  161.5101 H        59        0    0.0000
    932 H         118.6192  181.4273  162.3773 H        59        0    0.0000
    933 C         120.6117  176.9266  161.7112 C.3      60        0    0.0000
    934 C         120.1268  178.3173  162.0910 C.3      60        0    0.0000
    935 C         120.3658  179.1402  160.8187 C.3      60        0    0.0000
    936 C         119.4982  180.3974  160.6790 C.3      60        0    0.0000
    937 C         120.2717  178.1379  159.6499 C.3      60        0    0.0000
    938 C         120.0723  176.7518  160.2900 C.3      60        0    0.0000
    939 C         120.7576  175.6004  159.5501 C.3      60        0    0.0000
    940 H         121.7078  176.8894  161.7259 H        60        0    0.0000
    941 H         120.2336  176.1601  162.3945 H        60        0    0.0000
    942 H         119.0664  178.2740  162.3619 H        60        0    0.0000
    943 H         120.6750  178.7211  162.9480 H        60        0    0.0000
    944 H         121.4096  179.4865  160.8515 H        60        0    0.0000
    945 H         119.7876  180.9296  159.7649 H        60        0    0.0000
    946 H         118.4514  180.0978  160.5498 H        60        0    0.0000
    947 H         121.2025  178.1771  159.0704 H        60        0    0.0000
    948 H         119.4561  178.3637  158.9549 H        60        0    0.0000
    949 H         118.9921  176.5555  160.3535 H        60        0    0.0000
    950 H         121.8464  175.6791  159.6534 H        60        0    0.0000
    951 H         120.4659  174.6491  160.0109 H        60        0    0.0000
    952 C         118.9037  178.5713  156.3254 C.3      61        0    0.0000
    953 C         119.8589  177.9504  157.3481 C.3      61        0    0.0000
    954 C         119.2918  176.5640  157.6806 C.3      61        0    0.0000
    955 C         120.3883  175.5577  158.0407 C.3      61        0    0.0000
    956 C         118.4850  176.2080  156.4275 C.3      61        0    0.0000
    957 C         117.7993  177.5342  156.0826 C.3      61        0    0.0000
    958 C         117.2328  177.6091  154.6620 C.3      61        0    0.0000
    959 H         118.4835  179.5143  156.6913 H        61        0    0.0000
    960 H         119.4526  178.7964  155.4031 H        61        0    0.0000
    961 H         119.9379  178.5687  158.2487 H        61        0    0.0000
    962 H         120.8632  177.8794  156.9136 H        61        0    0.0000
    963 H         118.5969  176.6718  158.5263 H        61        0    0.0000
    964 H         121.2887  175.7785  157.4550 H        61        0    0.0000
    965 H         120.0763  174.5422  157.7700 H        61        0    0.0000
    966 H         117.7600  175.4109  156.6206 H        61        0    0.0000
    967 H         119.1458  175.8840  155.6137 H        61        0    0.0000
    968 H         116.9951  177.7132  156.8111 H        61        0    0.0000
    969 H         117.8742  177.0545  153.9671 H        61        0    0.0000
    970 H         117.2324  178.6532  154.3270 H        61        0    0.0000
    971 C         115.7816  177.0619  154.5750 C.3      62        0    0.0000
    972 C         114.6984  178.1334  154.7646 C.3      62        0    0.0000
    973 H         115.6644  176.6331  153.5715 H        62        0    0.0000
    974 H         115.6548  176.2364  155.2852 H        62        0    0.0000
    975 H         115.1395  179.1095  154.9980 H        62        0    0.0000
    976 H         114.1645  178.2499  153.8127 H        62        0    0.0000
    977 C         111.1960  175.6689  154.0619 C.3      63        0    0.0000
    978 C         112.6334  176.1856  154.1032 C.3      63        0    0.0000
    979 C         112.9836  176.3969  155.5863 C.3      63        0    0.0000
    980 C         113.6227  177.7677  155.8451 C.3      63        0    0.0000
    981 C         111.6618  176.1708  156.3363 C.3      63        0    0.0000
    982 C         110.8864  175.1664  155.4744 C.3      63        0    0.0000
    983 C         111.3213  173.7021  155.6671 C.3      63        0    0.0000
    984 H         110.5257  176.5038  153.8205 H        63        0    0.0000
    985 H         111.0546  174.9070  153.2889 H        63        0    0.0000
    986 H         112.7276  177.1005  153.5082 H        63        0    0.0000
    987 H         113.3146  175.4458  153.6664 H        63        0    0.0000
    988 H         113.6925  175.6102  155.8807 H        63        0    0.0000
    989 H         114.0774  177.7938  156.8422 H        63        0    0.0000
    990 H         112.8430  178.5388  155.8326 H        63        0    0.0000
    991 H         111.8256  175.8218  157.3605 H        63        0    0.0000
    992 H         111.0924  177.1076  156.3956 H        63        0    0.0000
    993 H         109.8099  175.2524  155.6695 H        63        0    0.0000
    994 H         112.3405  173.6391  156.0635 H        63        0    0.0000
    995 H         111.3324  173.1978  154.6932 H        63        0    0.0000
    996 C         108.1442  170.8190  154.3812 C.3      64        0    0.0000
    997 C         109.3158  171.7859  154.5714 C.3      64        0    0.0000
    998 C         109.0552  172.5238  155.8911 C.3      64        0    0.0000
    999 C         110.3520  172.9231  156.6006 C.3      64        0    0.0000
   1000 C         108.1766  171.5409  156.6722 C.3      64        0    0.0000
   1001 C         107.2245  171.0130  155.5939 C.3      64        0    0.0000
   1002 C         106.4814  169.7287  155.9722 C.3      64        0    0.0000
   1003 H         107.6089  171.0177  153.4465 H        64        0    0.0000
   1004 H         108.5240  169.7917  154.3259 H        64        0    0.0000
   1005 H         109.3930  172.4903  153.7362 H        64        0    0.0000
   1006 H         110.2543  171.2198  154.6067 H        64        0    0.0000
   1007 H         108.4631  173.4237  155.6693 H        64        0    0.0000
   1008 H         110.8620  172.0203  156.9577 H        64        0    0.0000
   1009 H         110.1298  173.5313  157.4852 H        64        0    0.0000
   1010 H         107.6379  172.0332  157.4880 H        64        0    0.0000
   1011 H         108.7786  170.7279  157.0970 H        64        0    0.0000
   1012 H         106.4982  171.8021  155.3503 H        64        0    0.0000
   1013 H         106.4654  169.6054  157.0614 H        64        0    0.0000
   1014 H         107.0202  168.8652  155.5642 H        64        0    0.0000
   1015 C         105.0267  169.7055  155.4278 C.3      65        0    0.0000
   1016 C         104.3363  168.3396  155.5509 C.3      65        0    0.0000
   1017 H         105.0829  169.9638  154.3626 H        65        0    0.0000
   1018 H         104.4388  170.4946  155.9111 H        65        0    0.0000
   1019 H         104.4409  167.8176  154.5911 H        65        0    0.0000
   1020 H         104.8261  167.7115  156.3042 H        65        0    0.0000
   1021 C         100.6139  165.5014  156.5113 C.3      66        0    0.0000
   1022 C         102.0478  166.0342  156.4571 C.3      66        0    0.0000
   1023 C         102.0595  167.1603  155.4077 C.3      66        0    0.0000
   1024 C         102.8003  168.4271  155.8535 C.3      66        0    0.0000
   1025 C         100.5792  167.4232  155.1131 C.3      66        0    0.0000
   1026 C          99.9058  166.0557  155.2703 C.3      66        0    0.0000
   1027 C         100.0830  165.1669  154.0246 C.3      66        0    0.0000
   1028 H         100.5873  164.4101  156.5845 H        66        0    0.0000
   1029 H         100.1243  165.8960  157.4110 H        66        0    0.0000
   1030 H         102.3588  166.3752  157.4507 H        66        0    0.0000
   1031 H         102.7393  165.2384  156.1566 H        66        0    0.0000
   1032 H         102.5263  166.7726  154.4910 H        66        0    0.0000
   1033 H         102.3897  169.2938  155.3219 H        66        0    0.0000
   1034 H         102.6425  168.6065  156.9232 H        66        0    0.0000
   1035 H         100.4299  167.8591  154.1199 H        66        0    0.0000
   1036 H         100.1618  168.1232  155.8485 H        66        0    0.0000
   1037 H          98.8358  166.1934  155.4714 H        66        0    0.0000
   1038 H         100.9682  164.5279  154.1171 H        66        0    0.0000
   1039 H         100.2386  165.8013  153.1440 H        66        0    0.0000
   1040 C          98.7829  161.7801  156.4549 C.3      67        0    0.0000
   1041 C          99.2965  163.1476  156.0070 C.3      67        0    0.0000
   1042 C          98.2284  163.7339  155.0677 C.3      67        0    0.0000
   1043 C          98.8316  164.2785  153.7662 C.3      67        0    0.0000
   1044 C          97.2204  162.5928  154.8611 C.3      67        0    0.0000
   1045 C          97.2814  161.7738  156.1567 C.3      67        0    0.0000
   1046 C          96.4664  162.3702  157.3188 C.3      67        0    0.0000
   1047 H          99.2735  161.0029  155.8550 H        67        0    0.0000
   1048 H          99.0184  161.5754  157.5040 H        67        0    0.0000
   1049 H         100.2773  163.0494  155.5289 H        67        0    0.0000
   1050 H          99.4254  163.8064  156.8738 H        67        0    0.0000
   1051 H          97.7253  164.5538  155.5996 H        67        0    0.0000
   1052 H          98.0812  164.8511  153.2089 H        67        0    0.0000
   1053 H          99.1289  163.4391  153.1260 H        67        0    0.0000
   1054 H          96.2170  162.9673  154.6362 H        67        0    0.0000
   1055 H          97.5304  161.9583  154.0205 H        67        0    0.0000
   1056 H          96.9459  160.7456  155.9702 H        67        0    0.0000
   1057 H          95.4041  162.4442  157.0623 H        67        0    0.0000
   1058 H          96.8130  163.3920  157.5155 H        67        0    0.0000
   1059 C          96.6283  161.5474  158.6283 C.3      68        0    0.0000
   1060 C          98.0644  161.5140  159.1705 C.3      68        0    0.0000
   1061 H          95.9904  162.0246  159.3832 H        68        0    0.0000
   1062 H          96.2345  160.5351  158.4796 H        68        0    0.0000
   1063 H          98.7953  161.7059  158.3762 H        68        0    0.0000
   1064 H          98.1722  162.3276  159.8992 H        68        0    0.0000
   1065 C          99.9380  157.2958  159.5146 C.3      69        0    0.0000
   1066 C          99.4942  158.3609  158.5082 C.3      69        0    0.0000
   1067 C          98.1808  158.9447  159.0404 C.3      69        0    0.0000
   1068 C          98.4326  160.1855  159.9176 C.3      69        0    0.0000
   1069 C          97.5781  157.7492  159.7892 C.3      69        0    0.0000
   1070 C          98.7716  157.1040  160.4981 C.3      69        0    0.0000
   1071 C          98.5010  155.6457  160.8855 C.3      69        0    0.0000
   1072 H         100.1957  156.3714  158.9854 H        69        0    0.0000
   1073 H         100.8356  157.6232  160.0515 H        69        0    0.0000
   1074 H          99.3097  157.8776  157.5404 H        69        0    0.0000
   1075 H         100.2684  159.1176  158.3456 H        69        0    0.0000
   1076 H          97.5325  159.2276  158.2012 H        69        0    0.0000
   1077 H          99.4947  160.2262  160.1879 H        69        0    0.0000
   1078 H          97.8732  160.1279  160.8574 H        69        0    0.0000
   1079 H          97.1422  157.0490  159.0646 H        69        0    0.0000
   1080 H          96.7875  158.0266  160.4927 H        69        0    0.0000
   1081 H          98.9877  157.6811  161.4081 H        69        0    0.0000
   1082 H          99.4453  155.1097  161.0362 H        69        0    0.0000
   1083 H          97.9770  155.1422  160.0646 H        69        0    0.0000
   1084 C          98.0349  151.8411  162.9441 C.3      70        0    0.0000
   1085 C          98.5777  153.2632  162.9647 C.3      70        0    0.0000
   1086 C          97.3442  154.1047  162.6211 C.3      70        0    0.0000
   1087 C          97.6322  155.5405  162.1717 C.3      70        0    0.0000
   1088 C          96.5321  153.2485  161.6298 C.3      70        0    0.0000
   1089 C          97.1411  151.8344  161.6996 C.3      70        0    0.0000
   1090 C          96.1391  150.6789  161.6161 C.3      70        0    0.0000
   1091 H          98.8362  151.0986  162.8790 H        70        0    0.0000
   1092 H          97.4665  151.6487  163.8608 H        70        0    0.0000
   1093 H          98.9965  153.5269  163.9408 H        70        0    0.0000
   1094 H          99.3698  153.3678  162.2150 H        70        0    0.0000
   1095 H          96.7432  154.1796  163.5400 H        70        0    0.0000
   1096 H          96.6816  156.0587  161.9981 H        70        0    0.0000
   1097 H          98.1389  156.0754  162.9837 H        70        0    0.0000
   1098 H          96.5876  153.6205  160.6011 H        70        0    0.0000
   1099 H          95.4732  153.2702  161.9094 H        70        0    0.0000
   1100 H          97.8071  151.7340  160.8293 H        70        0    0.0000
   1101 H          96.5377  149.8188  162.1671 H        70        0    0.0000
   1102 H          95.2105  150.9727  162.1196 H        70        0    0.0000
   1103 C          95.8000  150.2291  160.1632 C.3      71        0    0.0000
   1104 C          94.8784  149.0033  160.0887 C.3      71        0    0.0000
   1105 H          96.7515  149.9695  159.6817 H        71        0    0.0000
   1106 H          95.3852  151.0747  159.6020 H        71        0    0.0000
   1107 H          94.0199  149.2607  159.4552 H        71        0    0.0000
   1108 H          95.3802  148.1557  159.6073 H        71        0    0.0000
   1109 C          94.2995  148.5562  161.4757 C.3      72        0    0.0000
   1110 C          93.3286  147.3696  161.3932 C.3      72        0    0.0000
   1111 H          93.7523  149.4162  161.8826 H        72        0    0.0000
   1112 H          95.1222  148.3510  162.1706 H        72        0    0.0000
   1113 H          92.5091  147.6466  160.7177 H        72        0    0.0000
   1114 H          93.8119  146.4886  160.9550 H        72        0    0.0000
   1115 C          91.5235  143.4336  163.3022 C.3      73        0    0.0000
   1116 C          92.4765  144.4486  162.6655 C.3      73        0    0.0000
   1117 C          91.7278  145.7877  162.6443 C.3      73        0    0.0000
   1118 C          92.6740  146.9855  162.7653 C.3      73        0    0.0000
   1119 C          90.7272  145.6456  163.7960 C.3      73        0    0.0000
   1120 C          90.2387  144.2017  163.6391 C.3      73        0    0.0000
   1121 C          89.5256  143.6323  164.8686 C.3      73        0    0.0000
   1122 H          91.3158  142.5993  162.6236 H        73        0    0.0000
   1123 H          91.9870  143.0126  164.2024 H        73        0    0.0000
   1124 H          92.7670  144.1450  161.6541 H        73        0    0.0000
   1125 H          93.3945  144.5115  163.2621 H        73        0    0.0000
   1126 H          91.1685  145.8526  161.6996 H        73        0    0.0000
   1127 H          93.4725  146.7455  163.4776 H        73        0    0.0000
   1128 H          92.1396  147.8529  163.1702 H        73        0    0.0000
   1129 H          89.9067  146.3659  163.7161 H        73        0    0.0000
   1130 H          91.2206  145.7903  164.7652 H        73        0    0.0000
   1131 H          89.5702  144.1504  162.7673 H        73        0    0.0000
   1132 H          88.8867  144.3969  165.3258 H        73        0    0.0000
   1133 H          90.2714  143.3517  165.6220 H        73        0    0.0000
   1134 C          88.7249  141.0015  160.9879 C.3      74        0    0.0000
   1135 C          88.4555  142.1425  161.9590 C.3      74        0    0.0000
   1136 C          89.1054  141.6483  163.2556 C.3      74        0    0.0000
   1137 C          88.6712  142.3802  164.5291 C.3      74        0    0.0000
   1138 C          88.8913  140.1220  163.2606 C.3      74        0    0.0000
   1139 C          88.4361  139.7572  161.8340 C.3      74        0    0.0000
   1140 C          88.9916  138.4418  161.2797 C.3      74        0    0.0000
   1141 H          88.0816  141.0563  160.1042 H        74        0    0.0000
   1142 H          89.7673  141.0392  160.6528 H        74        0    0.0000
   1143 H          88.8917  143.0849  161.6136 H        74        0    0.0000
   1144 H          87.3752  142.2876  162.0688 H        74        0    0.0000
   1145 H          90.1884  141.8150  163.1532 H        74        0    0.0000
   1146 H          87.6233  142.6861  164.4266 H        74        0    0.0000
   1147 H          88.7149  141.6841  165.3752 H        74        0    0.0000
   1148 H          88.1309  139.8011  163.9808 H        74        0    0.0000
   1149 H          89.8220  139.6228  163.5513 H        74        0    0.0000
   1150 H          87.3421  139.6435  161.8709 H        74        0    0.0000
   1151 H          88.5227  137.6038  161.8090 H        74        0    0.0000
   1152 H          88.7057  138.3479  160.2254 H        74        0    0.0000
   1153 C          90.5395  138.3020  161.3929 C.3      75        0    0.0000
   1154 C          91.1023  137.0390  160.7254 C.3      75        0    0.0000
   1155 H          90.9740  139.1754  160.8899 H        75        0    0.0000
   1156 H          90.8401  138.3648  162.4453 H        75        0    0.0000
   1157 H          91.8402  137.2903  159.9546 H        75        0    0.0000
   1158 H          91.6331  136.4576  161.4902 H        75        0    0.0000
   1159 C          90.6174  134.3226  156.9648 C.3      76        0    0.0000
   1160 C          91.1594  135.3334  157.9743 C.3      76        0    0.0000
   1161 C          90.6157  134.9160  159.3516 C.3      76        0    0.0000
   1162 C          90.0058  136.0959  160.1198 C.3      76        0    0.0000
   1163 C          89.6221  133.7828  159.0528 C.3      76        0    0.0000
   1164 C          90.1598  133.1120  157.7824 C.3      76        0    0.0000
   1165 C          91.3130  132.1228  158.0314 C.3      76        0    0.0000
   1166 H          89.7510  134.7615  156.4535 H        76        0    0.0000
   1167 H          91.3548  134.0736  156.1952 H        76        0    0.0000
   1168 H          90.8674  136.3505  157.6908 H        76        0    0.0000
   1169 H          92.2554  135.3050  157.9877 H        76        0    0.0000
   1170 H          91.4523  134.5042  159.9336 H        76        0    0.0000
   1171 H          89.3498  135.7318  160.9191 H        76        0    0.0000
   1172 H          89.3790  136.6854  159.4399 H        76        0    0.0000
   1173 H          89.5231  133.0911  159.8950 H        76        0    0.0000
   1174 H          88.6254  134.1945  158.8469 H        76        0    0.0000
   1175 H          89.3479  132.5953  157.2549 H        76        0    0.0000
   1176 H          92.1948  132.6333  158.4333 H        76        0    0.0000
   1177 H          91.6177  131.6762  157.0771 H        76        0    0.0000
   1178 C          87.3246  130.0836  158.5247 C.3      77        0    0.0000
   1179 C          88.4498  131.0627  158.1808 C.3      77        0    0.0000
   1180 C          89.4168  131.0601  159.3783 C.3      77        0    0.0000
   1181 C          90.8978  130.9711  158.9900 C.3      77        0    0.0000
   1182 C          88.9649  129.8706  160.2316 C.3      77        0    0.0000
   1183 C          87.4478  129.8029  160.0263 C.3      77        0    0.0000
   1184 C          86.6909  130.8236  160.8971 C.3      77        0    0.0000
   1185 H          86.3447  130.4682  158.2263 H        77        0    0.0000
   1186 H          87.4864  129.1505  157.9699 H        77        0    0.0000
   1187 H          88.9324  130.7648  157.2434 H        77        0    0.0000
   1188 H          88.0458  132.0707  158.0309 H        77        0    0.0000
   1189 H          89.2500  131.9791  159.9583 H        77        0    0.0000
   1190 H          91.5147  131.0318  159.8946 H        77        0    0.0000
   1191 H          91.1137  130.0034  158.5227 H        77        0    0.0000
   1192 H          89.2468  129.9894  161.2828 H        77        0    0.0000
   1193 H          89.4250  128.9427  159.8678 H        77        0    0.0000
   1194 H          87.0902  128.7910  160.2556 H        77        0    0.0000
   1195 H          85.6313  130.5595  160.9858 H        77        0    0.0000
   1196 H          86.7345  131.8107  160.4217 H        77        0    0.0000
   1197 C          90.0659  129.0497  164.1038 C.3      78        0    0.0000
   1198 C          89.3319  130.3540  163.8324 C.3      78        0    0.0000
   1199 C          88.5483  130.0634  162.5460 C.3      78        0    0.0000
   1200 C          87.3124  130.9431  162.3189 C.3      78        0    0.0000
   1201 C          88.2868  128.5432  162.5514 C.3      78        0    0.0000
   1202 C          89.0066  127.9897  163.7948 C.3      78        0    0.0000
   1203 C          89.6183  126.5982  163.6141 C.3      78        0    0.0000
   1204 H          90.9293  128.9535  163.4343 H        78        0    0.0000
   1205 H          90.4240  128.9884  165.1360 H        78        0    0.0000
   1206 H          88.6714  130.5847  164.6752 H        78        0    0.0000
   1207 H          90.0230  131.1937  163.7092 H        78        0    0.0000
   1208 H          89.2282  130.2617  161.7041 H        78        0    0.0000
   1209 H          86.5476  130.6800  163.0593 H        78        0    0.0000
   1210 H          87.5796  131.9906  162.5022 H        78        0    0.0000
   1211 H          88.6941  128.1078  161.6304 H        78        0    0.0000
   1212 H          87.2215  128.2906  162.5771 H        78        0    0.0000
   1213 H          88.2875  127.9689  164.6266 H        78        0    0.0000
   1214 H          90.6187  126.5638  164.0615 H        78        0    0.0000
   1215 H          89.0082  125.8618  164.1505 H        78        0    0.0000
   1216 C          86.3583  126.9205  160.4917 C.3      79        0    0.0000
   1217 C          87.1899  126.6296  161.7331 C.3      79        0    0.0000
   1218 C          88.6272  126.7873  161.2262 C.3      79        0    0.0000
   1219 C          89.7105  126.1768  162.1206 C.3      79        0    0.0000
   1220 C          88.6024  126.2790  159.7714 C.3      79        0    0.0000
   1221 C          87.1130  126.1681  159.3908 C.3      79        0    0.0000
   1222 C          86.7656  126.5791  157.9567 C.3      79        0    0.0000
   1223 H          85.3277  126.5681  160.5983 H        79        0    0.0000
   1224 H          86.3314  128.0004  160.3089 H        79        0    0.0000
   1225 H          86.9632  127.3232  162.5488 H        79        0    0.0000
   1226 H          86.9863  125.6123  162.0850 H        79        0    0.0000
   1227 H          88.8324  127.8675  161.1799 H        79        0    0.0000
   1228 H          89.6517  125.0836  162.0588 H        79        0    0.0000
   1229 H          90.6965  126.4615  161.7346 H        79        0    0.0000
   1230 H          89.0840  125.3023  159.6534 H        79        0    0.0000
   1231 H          89.1548  126.9750  159.1310 H        79        0    0.0000
   1232 H          86.8408  125.1061  159.4861 H        79        0    0.0000
   1233 H          85.7376  126.9598  157.9325 H        79        0    0.0000
   1234 H          87.4158  127.4084  157.6540 H        79        0    0.0000
   1235 C          86.8991  125.4312  156.9114 C.3      80        0    0.0000
   1236 C          88.3060  125.2938  156.3120 C.3      80        0    0.0000
   1237 H          86.2026  125.6631  156.0955 H        80        0    0.0000
   1238 H          86.5601  124.4872  157.3540 H        80        0    0.0000
   1239 H          88.2018  125.1448  155.2297 H        80        0    0.0000
   1240 H          88.8886  126.2126  156.4473 H        80        0    0.0000
   1241 C          87.1587  124.2247  160.0824 C.3      81        0    0.0000
   1242 C          87.9773  124.9034  158.9812 C.3      81        0    0.0000
   1243 C          88.8369  123.8038  158.3438 C.3      81        0    0.0000
   1244 C          89.1158  124.0688  156.8617 C.3      81        0    0.0000
   1245 C          88.0352  122.5285  158.6246 C.3      81        0    0.0000
   1246 C          87.5577  122.7432  160.0647 C.3      81        0    0.0000
   1247 C          86.4112  121.8264  160.5001 C.3      81        0    0.0000
   1248 H          87.3564  124.6730  161.0621 H        81        0    0.0000
   1249 H          86.0897  124.3549  159.8754 H        81        0    0.0000
   1250 H          88.6032  125.7065  159.3850 H        81        0    0.0000
   1251 H          87.2988  125.3573  158.2490 H        81        0    0.0000
   1252 H          89.7872  123.7492  158.8947 H        81        0    0.0000
   1253 H          88.8443  123.1810  156.2779 H        81        0    0.0000
   1254 H          90.1870  124.2375  156.7005 H        81        0    0.0000
   1255 H          88.6511  121.6287  158.5278 H        81        0    0.0000
   1256 H          87.1843  122.4400  157.9375 H        81        0    0.0000
   1257 H          88.4142  122.6110  160.7417 H        81        0    0.0000
   1258 H          85.4454  122.3110  160.3147 H        81        0    0.0000
   1259 H          86.4761  121.6542  161.5811 H        81        0    0.0000
   1260 C          86.4470  120.4517  159.7779 C.3      82        0    0.0000
   1261 C          86.7620  119.2683  160.7042 C.3      82        0    0.0000
   1262 H          85.4490  120.2926  159.3497 H        82        0    0.0000
   1263 H          87.1464  120.4954  158.9347 H        82        0    0.0000
   1264 H          87.4213  119.5700  161.5265 H        82        0    0.0000
   1265 H          85.8219  118.9347  161.1619 H        82        0    0.0000
   1266 C          88.0447  118.4175  156.3378 C.3      83        0    0.0000
   1267 C          87.5479  119.0874  157.6212 C.3      83        0    0.0000
   1268 C          86.9445  117.9727  158.4944 C.3      83        0    0.0000
   1269 C          87.3719  118.0265  159.9663 C.3      83        0    0.0000
   1270 C          87.3778  116.6732  157.8082 C.3      83        0    0.0000
   1271 C          87.4170  117.0195  156.3159 C.3      83        0    0.0000
   1272 C          86.0188  116.9937  155.6699 C.3      83        0    0.0000
   1273 H          87.8179  119.0173  155.4512 H        83        0    0.0000
   1274 H          89.1367  118.3207  156.3898 H        83        0    0.0000
   1275 H          88.3734  119.6136  158.1131 H        83        0    0.0000
   1276 H          86.7802  119.8347  157.3889 H        83        0    0.0000
   1277 H          85.8490  118.0418  158.4336 H        83        0    0.0000
   1278 H          87.0323  117.1172  160.4766 H        83        0    0.0000
   1279 H          88.4648  118.0468  160.0472 H        83        0    0.0000
   1280 H          86.6997  115.8440  158.0346 H        83        0    0.0000
   1281 H          88.3818  116.3811  158.1424 H        83        0    0.0000
   1282 H          88.0746  116.3145  155.7917 H        83        0    0.0000
   1283 H          86.0835  117.1021  154.5816 H        83        0    0.0000
   1284 H          85.4311  117.8422  156.0401 H        83        0    0.0000
   1285 C          88.5072  114.3117  157.1373 C.3      84        0    0.0000
   1286 C          87.3487  114.1927  156.1441 C.3      84        0    0.0000
   1287 C          86.0974  114.7309  156.8608 C.3      84        0    0.0000
   1288 C          85.2485  115.6854  156.0120 C.3      84        0    0.0000
   1289 C          86.6410  115.4021  158.1262 C.3      84        0    0.0000
   1290 C          87.8698  114.5694  158.5070 C.3      84        0    0.0000
   1291 C          87.4941  113.2751  159.2531 C.3      84        0    0.0000
   1292 H          89.1579  113.4324  157.1115 H        84        0    0.0000
   1293 H          89.1236  115.1762  156.8591 H        84        0    0.0000
   1294 H          87.5836  114.7435  155.2265 H        84        0    0.0000
   1295 H          87.1941  113.1447  155.8621 H        84        0    0.0000
   1296 H          85.4802  113.8742  157.1672 H        84        0    0.0000
   1297 H          84.9721  115.1890  155.0741 H        84        0    0.0000
   1298 H          84.3138  115.9298  156.5297 H        84        0    0.0000
   1299 H          85.8914  115.4430  158.9231 H        84        0    0.0000
   1300 H          86.9505  116.4327  157.9090 H        84        0    0.0000
   1301 H          88.5416  115.1701  159.1333 H        84        0    0.0000
   1302 H          86.9710  112.5750  158.5923 H        84        0    0.0000
   1303 H          86.8061  113.5141  160.0728 H        84        0    0.0000
   1304 C          90.8437  114.1401  162.4311 C.3      85        0    0.0000
   1305 C          89.6933  114.3355  161.4446 C.3      85        0    0.0000
   1306 C          88.9830  112.9764  161.3207 C.3      85        0    0.0000
   1307 C          88.7444  112.5742  159.8593 C.3      85        0    0.0000
   1308 C          89.8727  111.9974  162.1022 C.3      85        0    0.0000
   1309 C          90.5324  112.8498  163.1937 C.3      85        0    0.0000
   1310 C          89.6353  113.1124  164.4171 C.3      85        0    0.0000
   1311 H          91.7764  114.0103  161.8673 H        85        0    0.0000
   1312 H          90.9785  115.0086  163.0834 H        85        0    0.0000
   1313 H          90.0712  114.7082  160.4863 H        85        0    0.0000
   1314 H          88.9897  115.0846  161.8266 H        85        0    0.0000
   1315 H          88.0138  113.0547  161.8332 H        85        0    0.0000
   1316 H          88.6341  111.4867  159.7767 H        85        0    0.0000
   1317 H          89.6206  112.8499  159.2602 H        85        0    0.0000
   1318 H          89.3019  111.1537  162.5021 H        85        0    0.0000
   1319 H          90.6524  111.5860  161.4479 H        85        0    0.0000
   1320 H          91.4680  112.3816  163.5254 H        85        0    0.0000
   1321 H          88.9545  113.9515  164.2379 H        85        0    0.0000
   1322 H          90.2630  113.3952  165.2708 H        85        0    0.0000
   1323 C          90.4014  108.5872  164.0605 C.3      86        0    0.0000
   1324 C          90.5288  110.1112  163.9970 C.3      86        0    0.0000
   1325 C          89.0979  110.6684  163.8903 C.3      86        0    0.0000
   1326 C          88.8144  111.8547  164.8201 C.3      86        0    0.0000
   1327 C          88.1965  109.4658  164.1876 C.3      86        0    0.0000
   1328 C          88.9657  108.2611  163.6347 C.3      86        0    0.0000
   1329 C          88.8056  108.1114  162.1099 C.3      86        0    0.0000
   1330 H          91.1652  108.0890  163.4558 H        86        0    0.0000
   1331 H          90.5511  108.2632  165.0984 H        86        0    0.0000
   1332 H          91.0643  110.4796  164.8790 H        86        0    0.0000
   1333 H          91.1106  110.4090  163.1170 H        86        0    0.0000
   1334 H          88.9242  110.9759  162.8492 H        86        0    0.0000
   1335 H          87.7480  112.1057  164.7737 H        86        0    0.0000
   1336 H          89.0328  111.5867  165.8602 H        86        0    0.0000
   1337 H          87.2032  109.5774  163.7410 H        86        0    0.0000
   1338 H          88.0617  109.3479  165.2707 H        86        0    0.0000
   1339 H          88.6198  107.3449  164.1299 H        86        0    0.0000
   1340 H          89.6942  107.6531  161.6618 H        86        0    0.0000
   1341 H          88.6958  109.1036  161.6564 H        86        0    0.0000
   1342 C          87.5502  107.2689  161.7410 C.3      87        0    0.0000
   1343 C          87.8314  106.1329  160.7470 C.3      87        0    0.0000
   1344 H          87.1833  106.8220  162.6738 H        87        0    0.0000
   1345 H          86.7555  107.9302  161.3764 H        87        0    0.0000
   1346 H          87.6985  106.4670  159.7113 H        87        0    0.0000
   1347 H          88.8849  105.8430  160.8504 H        87        0    0.0000
   1348 C          86.9796  104.8407  160.9987 C.3      88        0    0.0000
   1349 C          87.8166  103.5953  161.3242 C.3      88        0    0.0000
   1350 H          86.3325  105.0506  161.8600 H        88        0    0.0000
   1351 H          86.3162  104.6632  160.1442 H        88        0    0.0000
   1352 H          87.3826  102.6944  160.8748 H        88        0    0.0000
   1353 H          88.8087  103.7243  160.8727 H        88        0    0.0000
   1354 C          84.6458  104.0862  164.3988 C.3      89        0    0.0000
   1355 C          85.5843  104.0991  163.2003 C.3      89        0    0.0000
   1356 C          86.7538  103.2292  163.6727 C.3      89        0    0.0000
   1357 C          88.0441  103.3635  162.8582 C.3      89        0    0.0000
   1358 C          86.8878  103.5140  165.1815 C.3      89        0    0.0000
   1359 C          85.6016  104.2622  165.5833 C.3      89        0    0.0000
   1360 C          85.0248  103.8949  166.9538 C.3      89        0    0.0000
   1361 H          83.9042  104.8892  164.3459 H        89        0    0.0000
   1362 H          84.1107  103.1310  164.4394 H        89        0    0.0000
   1363 H          85.1068  103.6940  162.3027 H        89        0    0.0000
   1364 H          85.8959  105.1272  162.9853 H        89        0    0.0000
   1365 H          86.4312  102.1815  163.5764 H        89        0    0.0000
   1366 H          88.6339  104.1975  163.2568 H        89        0    0.0000
   1367 H          88.6482  102.4583  162.9918 H        89        0    0.0000
   1368 H          87.7604  104.1306  165.4225 H        89        0    0.0000
   1369 H          87.0178  102.5702  165.7220 H        89        0    0.0000
   1370 H          85.8593  105.3312  165.6290 H        89        0    0.0000
   1371 H          85.7200  104.2248  167.7349 H        89        0    0.0000
   1372 H          84.0908  104.4478  167.1094 H        89        0    0.0000
   1373 C          84.7437  102.3740  167.1436 C.3      90        0    0.0000
   1374 C          84.1954  102.0092  168.5305 C.3      90        0    0.0000
   1375 H          83.9905  102.0953  166.3956 H        90        0    0.0000
   1376 H          85.6470  101.7992  166.9080 H        90        0    0.0000
   1377 H          84.8631  102.3570  169.3275 H        90        0    0.0000
   1378 H          83.2418  102.5348  168.6686 H        90        0    0.0000
   1379 C          81.0153   99.3760  166.5252 C.3      91        0    0.0000
   1380 C          82.1153  100.3775  166.8420 C.3      91        0    0.0000
   1381 C          82.4910  100.0504  168.2928 C.3      91        0    0.0000
   1382 C          83.9009  100.4805  168.7173 C.3      91        0    0.0000
   1383 C          82.1718   98.5527  168.4788 C.3      91        0    0.0000
   1384 C          81.5361   98.0836  167.1572 C.3      91        0    0.0000
   1385 C          80.4340   97.0331  167.3144 C.3      91        0    0.0000
   1386 H          80.0713   99.6900  166.9870 H        91        0    0.0000
   1387 H          80.8524   99.2735  165.4479 H        91        0    0.0000
   1388 H          82.9548  100.2290  166.1542 H        91        0    0.0000
   1389 H          81.7712  101.4107  166.7318 H        91        0    0.0000
   1390 H          81.7915  100.6027  168.9380 H        91        0    0.0000
   1391 H          84.0494  100.2210  169.7723 H        91        0    0.0000
   1392 H          84.6384   99.9049  168.1456 H        91        0    0.0000
   1393 H          81.4738   98.4381  169.3175 H        91        0    0.0000
   1394 H          83.0554   97.9516  168.7176 H        91        0    0.0000
   1395 H          82.3347   97.6839  166.5154 H        91        0    0.0000
   1396 H          79.5580   97.4743  167.8044 H        91        0    0.0000
   1397 H          80.1056   96.7012  166.3223 H        91        0    0.0000
   1398 C          80.9036   95.7928  168.1254 C.3      92        0    0.0000
   1399 C          79.8524   94.6781  168.2251 C.3      92        0    0.0000
   1400 H          81.1251   96.1438  169.1414 H        92        0    0.0000
   1401 H          81.8464   95.4161  167.7115 H        92        0    0.0000
   1402 H          80.2550   93.7852  167.7299 H        92        0    0.0000
   1403 H          79.6642   94.3996  169.2687 H        92        0    0.0000
   1404 C          78.4957   95.0164  167.5155 C.3      93        0    0.0000
   1405 C          77.4498   93.8957  167.6024 C.3      93        0    0.0000
   1406 H          78.7261   95.1858  166.4559 H        93        0    0.0000
   1407 H          78.1006   95.9618  167.9054 H        93        0    0.0000
   1408 H          77.9339   92.9549  167.3106 H        93        0    0.0000
   1409 H          77.0952   93.7598  168.6308 H        93        0    0.0000
   1410 C          75.8491   90.5029  165.9683 C.3      94        0    0.0000
   1411 C          76.0859   91.5726  167.0333 C.3      94        0    0.0000
   1412 C          75.3463   92.8363  166.5612 C.3      94        0    0.0000
   1413 C          76.2253   94.0913  166.6427 C.3      94        0    0.0000
   1414 C          74.8651   92.5003  165.1412 C.3      94        0    0.0000
   1415 C          74.6488   90.9816  165.1475 C.3      94        0    0.0000
   1416 C          73.3149   90.5371  165.7747 C.3      94        0    0.0000
   1417 H          76.7320   90.4475  165.3187 H        94        0    0.0000
   1418 H          75.7075   89.5100  166.4066 H        94        0    0.0000
   1419 H          77.1594   91.7359  167.1785 H        94        0    0.0000
   1420 H          75.6768   91.2454  167.9965 H        94        0    0.0000
   1421 H          74.4668   92.9728  167.2061 H        94        0    0.0000
   1422 H          75.6315   94.9515  166.9728 H        94        0    0.0000
   1423 H          76.6043   94.3335  165.6425 H        94        0    0.0000
   1424 H          73.9656   93.0612  164.8692 H        94        0    0.0000
   1425 H          75.6422   92.7491  164.4068 H        94        0    0.0000
   1426 H          74.7179   90.5856  164.1263 H        94        0    0.0000
   1427 H          72.5244   91.2724  165.5903 H        94        0    0.0000
   1428 H          73.4325   90.4700  166.8631 H        94        0    0.0000
   1429 C          73.7714   86.1080  166.1082 C.3      95        0    0.0000
   1430 C          74.5195   87.4433  166.1461 C.3      95        0    0.0000
   1431 C          74.0591   88.2371  164.9185 C.3      95        0    0.0000
   1432 C          72.8602   89.1443  165.2538 C.3      95        0    0.0000
   1433 C          73.7497   87.1215  163.9122 C.3      95        0    0.0000
   1434 C          73.0614   86.0379  164.7460 C.3      95        0    0.0000
   1435 C          73.1146   84.6620  164.0722 C.3      95        0    0.0000
   1436 H          74.4785   85.2835  166.2545 H        95        0    0.0000
   1437 H          73.0376   86.0542  166.9205 H        95        0    0.0000
   1438 H          75.5965   87.2475  166.0676 H        95        0    0.0000
   1439 H          74.3590   87.9753  167.0894 H        95        0    0.0000
   1440 H          74.8836   88.8594  164.5474 H        95        0    0.0000
   1441 H          72.2540   88.6668  166.0332 H        95        0    0.0000
   1442 H          72.2057   89.2749  164.3854 H        95        0    0.0000
   1443 H          74.6897   86.7393  163.4931 H        95        0    0.0000
   1444 H          73.1267   87.4482  163.0742 H        95        0    0.0000
   1445 H          72.0102   86.3254  164.8884 H        95        0    0.0000
   1446 H          72.2982   84.0274  164.4361 H        95        0    0.0000
   1447 H          74.0516   84.1606  164.3419 H        95        0    0.0000
   1448 C          71.8923   88.3688  162.1808 C.3      96        0    0.0000
   1449 C          71.5630   86.8845  162.2231 C.3      96        0    0.0000
   1450 C          72.9215   86.2093  161.9954 C.3      96        0    0.0000
   1451 C          73.0359   84.7733  162.5225 C.3      96        0    0.0000
   1452 C          73.9746   87.1985  162.5356 C.3      96        0    0.0000
   1453 C          73.1975   88.4531  162.9748 C.3      96        0    0.0000
   1454 C          73.9316   89.7756  162.7400 C.3      96        0    0.0000
   1455 H          72.0377   88.6962  161.1441 H        96        0    0.0000
   1456 H          71.0982   88.9774  162.6242 H        96        0    0.0000
   1457 H          71.1347   86.6322  163.1991 H        96        0    0.0000
   1458 H          70.8342   86.6057  161.4556 H        96        0    0.0000
   1459 H          73.0735   86.1526  160.9072 H        96        0    0.0000
   1460 H          72.1716   84.1961  162.1728 H        96        0    0.0000
   1461 H          73.9250   84.3018  162.0875 H        96        0    0.0000
   1462 H          74.6874   87.4332  161.7353 H        96        0    0.0000
   1463 H          74.5570   86.7929  163.3696 H        96        0    0.0000
   1464 H          72.9578   88.3515  164.0433 H        96        0    0.0000
   1465 H          74.4426   90.0925  163.6568 H        96        0    0.0000
   1466 H          74.7093   89.6285  161.9812 H        96        0    0.0000
   1467 C          71.9874   91.2101  158.6222 C.3      97        0    0.0000
   1468 C          72.1345   91.8389  159.9993 C.3      97        0    0.0000
   1469 C          72.2756   90.6297  160.9324 C.3      97        0    0.0000
   1470 C          72.9800   90.9098  162.2659 C.3      97        0    0.0000
   1471 C          72.9030   89.5117  160.0744 C.3      97        0    0.0000
   1472 C          73.0201   90.0813  158.6488 C.3      97        0    0.0000
   1473 C          72.7893   89.0615  157.5310 C.3      97        0    0.0000
   1474 H          70.9725   90.8151  158.4915 H        97        0    0.0000
   1475 H          72.1811   91.9293  157.8206 H        97        0    0.0000
   1476 H          73.0228   92.4796  160.0162 H        97        0    0.0000
   1477 H          71.2704   92.4580  160.2601 H        97        0    0.0000
   1478 H          71.2572   90.2977  161.1841 H        97        0    0.0000
   1479 H          73.5578   91.8373  162.1751 H        97        0    0.0000
   1480 H          72.2241   91.0853  163.0405 H        97        0    0.0000
   1481 H          72.2465   88.6329  160.0979 H        97        0    0.0000
   1482 H          73.8816   89.1860  160.4422 H        97        0    0.0000
   1483 H          74.0196   90.5265  158.5383 H        97        0    0.0000
   1484 H          71.9387   89.3668  156.9101 H        97        0    0.0000
   1485 H          73.6667   89.0396  156.8737 H        97        0    0.0000
   1486 C          71.0884   86.5446  161.3861 C.3      98        0    0.0000
   1487 C          71.6164   86.2399  159.9926 C.3      98        0    0.0000
   1488 C          71.6721   87.6216  159.3376 C.3      98        0    0.0000
   1489 C          72.5374   87.6272  158.0749 C.3      98        0    0.0000
   1490 C          72.1735   88.5415  160.4658 C.3      98        0    0.0000
   1491 C          71.8479   87.8155  161.7874 C.3      98        0    0.0000
   1492 C          71.1665   88.6748  162.8598 C.3      98        0    0.0000
   1493 H          71.2737   85.7206  162.0824 H        98        0    0.0000
   1494 H          70.0061   86.7072  161.3401 H        98        0    0.0000
   1495 H          72.6151   85.7907  160.0548 H        98        0    0.0000
   1496 H          70.9636   85.5502  159.4489 H        98        0    0.0000
   1497 H          70.6460   87.9222  159.0802 H        98        0    0.0000
   1498 H          73.5003   87.1422  158.2741 H        98        0    0.0000
   1499 H          72.0431   87.0365  157.2944 H        98        0    0.0000
   1500 H          73.2579   88.6946  160.4006 H        98        0    0.0000
   1501 H          71.7090   89.5306  160.3933 H        98        0    0.0000
   1502 H          72.8098   87.4937  162.2137 H        98        0    0.0000
   1503 H          71.8144   89.5255  163.1023 H        98        0    0.0000
   1504 H          71.0667   88.0843  163.7784 H        98        0    0.0000
   1505 H          70.1827   89.0501  162.5780 H        98        0    0.0000
   1506 H         161.5359  160.3319   49.2411 H         0        0    0.0000
@<TRIPOS>BOND
     1     1     2      1
     2     1     6      1
     3     1     8      1
     4     1     9      1
     5     2     3      1
     6     2    10      1
     7     2    11      1
     8     3     4      1
     9     3     5      1
    10     3    12      1
    11     4    13      1
    12     4    14      1
    13     4  1506      H
    14     5     6      1
    15     5    15      1
    16     5    16      1
    17     6     7      1
    18     6    17      1
    19     7    18      1
    20     7    19      1
    21     7    23      1
    22    20    21      1
    23    20    25      1
    24    20    27      1
    25    20    28      1
    26    21    22      1
    27    21    29      1
    28    21    30      1
    29    22    23      1
    30    22    24      1
    31    22    31      1
    32    23    32      1
    33    23    33      1
    34    24    25      1
    35    24    34      1
    36    24    35      1
    37    25    26      1
    38    25    36      1
    39    26    37      1
    40    26    38      1
    41    26    39      1
    42    39    40      1
    43    39    41      1
    44    39    42      1
    45    40    43      1
    46    40    44      1
    47    40    48      1
    48    45    46      1
    49    45    50      1
    50    45    52      1
    51    45    53      1
    52    46    47      1
    53    46    54      1
    54    46    55      1
    55    47    48      1
    56    47    49      1
    57    47    56      1
    58    48    57      1
    59    48    58      1
    60    49    50      1
    61    49    59      1
    62    49    60      1
    63    50    51      1
    64    50    61      1
    65    51    62      1
    66    51    63      1
    67    51    64      1
    68    64    65      1
    69    64    66      1
    70    64    67      1
    71    65    68      1
    72    65    69      1
    73    65    73      1
    74    70    71      1
    75    70    75      1
    76    70    77      1
    77    70    78      1
    78    71    72      1
    79    71    79      1
    80    71    80      1
    81    72    73      1
    82    72    74      1
    83    72    81      1
    84    73    82      1
    85    73    83      1
    86    74    75      1
    87    74    84      1
    88    74    85      1
    89    75    76      1
    90    75    86      1
    91    76    87      1
    92    76    88      1
    93    76    92      1
    94    89    90      1
    95    89    94      1
    96    89    96      1
    97    89    97      1
    98    90    91      1
    99    90    98      1
   100    90    99      1
   101    91    92      1
   102    91    93      1
   103    91   100      1
   104    92   101      1
   105    92   102      1
   106    93    94      1
   107    93   103      1
   108    93   104      1
   109    94    95      1
   110    94   105      1
   111    95   106      1
   112    95   107      1
   113    95   108      1
   114   108   109      1
   115   108   110      1
   116   108   111      1
   117   109   112      1
   118   109   113      1
   119   109   114      1
   120   114   115      1
   121   114   116      1
   122   114   117      1
   123   115   118      1
   124   115   119      1
   125   115   120      1
   126   120   121      1
   127   120   122      1
   128   120   123      1
   129   121   124      1
   130   121   125      1
   131   121   126      1
   132   126   127      1
   133   126   128      1
   134   126   129      1
   135   127   130      1
   136   127   131      1
   137   127   135      1
   138   132   133      1
   139   132   137      1
   140   132   139      1
   141   132   140      1
   142   133   134      1
   143   133   141      1
   144   133   142      1
   145   134   135      1
   146   134   136      1
   147   134   143      1
   148   135   144      1
   149   135   145      1
   150   136   137      1
   151   136   146      1
   152   136   147      1
   153   137   138      1
   154   137   148      1
   155   138   149      1
   156   138   150      1
   157   138   154      1
   158   151   152      1
   159   151   156      1
   160   151   158      1
   161   151   159      1
   162   152   153      1
   163   152   160      1
   164   152   161      1
   165   153   154      1
   166   153   155      1
   167   153   162      1
   168   154   163      1
   169   154   164      1
   170   155   156      1
   171   155   165      1
   172   155   166      1
   173   156   157      1
   174   156   167      1
   175   157   168      1
   176   157   169      1
   177   157   170      1
   178   170   171      1
   179   170   172      1
   180   170   173      1
   181   171   174      1
   182   171   175      1
   183   171   179      1
   184   176   177      1
   185   176   181      1
   186   176   183      1
   187   176   184      1
   188   177   178      1
   189   177   185      1
   190   177   186      1
   191   178   179      1
   192   178   180      1
   193   178   187      1
   194   179   188      1
   195   179   189      1
   196   180   181      1
   197   180   190      1
   198   180   191      1
   199   181   182      1
   200   181   192      1
   201   182   193      1
   202   182   194      1
   203   182   195      1
   204   195   196      1
   205   195   197      1
   206   195   198      1
   207   196   199      1
   208   196   200      1
   209   196   204      1
   210   201   202      1
   211   201   206      1
   212   201   208      1
   213   201   209      1
   214   202   203      1
   215   202   210      1
   216   202   211      1
   217   203   204      1
   218   203   205      1
   219   203   212      1
   220   204   213      1
   221   204   214      1
   222   205   206      1
   223   205   215      1
   224   205   216      1
   225   206   207      1
   226   206   217      1
   227   207   218      1
   228   207   219      1
   229   207   223      1
   230   220   221      1
   231   220   225      1
   232   220   227      1
   233   220   228      1
   234   221   222      1
   235   221   229      1
   236   221   230      1
   237   222   223      1
   238   222   224      1
   239   222   231      1
   240   223   232      1
   241   223   233      1
   242   224   225      1
   243   224   234      1
   244   224   235      1
   245   225   226      1
   246   225   236      1
   247   226   237      1
   248   226   238      1
   249   226   242      1
   250   239   240      1
   251   239   244      1
   252   239   246      1
   253   239   247      1
   254   240   241      1
   255   240   248      1
   256   240   249      1
   257   241   242      1
   258   241   243      1
   259   241   250      1
   260   242   251      1
   261   242   252      1
   262   243   244      1
   263   243   253      1
   264   243   254      1
   265   244   245      1
   266   244   255      1
   267   245   256      1
   268   245   257      1
   269   245   261      1
   270   258   259      1
   271   258   263      1
   272   258   265      1
   273   258   266      1
   274   259   260      1
   275   259   267      1
   276   259   268      1
   277   260   261      1
   278   260   262      1
   279   260   269      1
   280   261   270      1
   281   261   271      1
   282   262   263      1
   283   262   272      1
   284   262   273      1
   285   263   264      1
   286   263   274      1
   287   264   275      1
   288   264   276      1
   289   264   277      1
   290   277   278      1
   291   277   279      1
   292   277   280      1
   293   278   281      1
   294   278   282      1
   295   278   286      1
   296   283   284      1
   297   283   288      1
   298   283   290      1
   299   283   291      1
   300   284   285      1
   301   284   292      1
   302   284   293      1
   303   285   286      1
   304   285   287      1
   305   285   294      1
   306   286   295      1
   307   286   296      1
   308   287   288      1
   309   287   297      1
   310   287   298      1
   311   288   289      1
   312   288   299      1
   313   289   300      1
   314   289   301      1
   315   289   305      1
   316   302   303      1
   317   302   307      1
   318   302   309      1
   319   302   310      1
   320   303   304      1
   321   303   311      1
   322   303   312      1
   323   304   305      1
   324   304   306      1
   325   304   313      1
   326   305   314      1
   327   305   315      1
   328   306   307      1
   329   306   316      1
   330   306   317      1
   331   307   308      1
   332   307   318      1
   333   308   319      1
   334   308   320      1
   335   308   324      1
   336   321   322      1
   337   321   326      1
   338   321   328      1
   339   321   329      1
   340   322   323      1
   341   322   330      1
   342   322   331      1
   343   323   324      1
   344   323   325      1
   345   323   332      1
   346   324   333      1
   347   324   334      1
   348   325   326      1
   349   325   335      1
   350   325   336      1
   351   326   327      1
   352   326   337      1
   353   327   338      1
   354   327   339      1
   355   327   343      1
   356   340   341      1
   357   340   345      1
   358   340   347      1
   359   340   348      1
   360   341   342      1
   361   341   349      1
   362   341   350      1
   363   342   343      1
   364   342   344      1
   365   342   351      1
   366   343   352      1
   367   343   353      1
   368   344   345      1
   369   344   354      1
   370   344   355      1
   371   345   346      1
   372   345   356      1
   373   346   357      1
   374   346   358      1
   375   346   362      1
   376   359   360      1
   377   359   364      1
   378   359   366      1
   379   359   367      1
   380   360   361      1
   381   360   368      1
   382   360   369      1
   383   361   362      1
   384   361   363      1
   385   361   370      1
   386   362   371      1
   387   362   372      1
   388   363   364      1
   389   363   373      1
   390   363   374      1
   391   364   365      1
   392   364   375      1
   393   365   376      1
   394   365   377      1
   395   365   381      1
   396   378   379      1
   397   378   383      1
   398   378   385      1
   399   378   386      1
   400   379   380      1
   401   379   387      1
   402   379   388      1
   403   380   381      1
   404   380   382      1
   405   380   389      1
   406   381   390      1
   407   381   391      1
   408   382   383      1
   409   382   392      1
   410   382   393      1
   411   383   384      1
   412   383   394      1
   413   384   395      1
   414   384   396      1
   415   384   397      1
   416   397   398      1
   417   397   399      1
   418   397   400      1
   419   398   401      1
   420   398   402      1
   421   398   406      1
   422   403   404      1
   423   403   408      1
   424   403   410      1
   425   403   411      1
   426   404   405      1
   427   404   412      1
   428   404   413      1
   429   405   406      1
   430   405   407      1
   431   405   414      1
   432   406   415      1
   433   406   416      1
   434   407   408      1
   435   407   417      1
   436   407   418      1
   437   408   409      1
   438   408   419      1
   439   409   420      1
   440   409   421      1
   441   409   425      1
   442   422   423      1
   443   422   427      1
   444   422   429      1
   445   422   430      1
   446   423   424      1
   447   423   431      1
   448   423   432      1
   449   424   425      1
   450   424   426      1
   451   424   433      1
   452   425   434      1
   453   425   435      1
   454   426   427      1
   455   426   436      1
   456   426   437      1
   457   427   428      1
   458   427   438      1
   459   428   439      1
   460   428   440      1
   461   428   444      1
   462   441   442      1
   463   441   446      1
   464   441   448      1
   465   441   449      1
   466   442   443      1
   467   442   450      1
   468   442   451      1
   469   443   444      1
   470   443   445      1
   471   443   452      1
   472   444   453      1
   473   444   454      1
   474   445   446      1
   475   445   455      1
   476   445   456      1
   477   446   447      1
   478   446   457      1
   479   447   458      1
   480   447   459      1
   481   447   463      1
   482   460   461      1
   483   460   465      1
   484   460   467      1
   485   460   468      1
   486   461   462      1
   487   461   469      1
   488   461   470      1
   489   462   463      1
   490   462   464      1
   491   462   471      1
   492   463   472      1
   493   463   473      1
   494   464   465      1
   495   464   474      1
   496   464   475      1
   497   465   466      1
   498   465   476      1
   499   466   477      1
   500   466   478      1
   501   466   479      1
   502   479   480      1
   503   479   481      1
   504   479   482      1
   505   480   483      1
   506   480   484      1
   507   480   488      1
   508   485   486      1
   509   485   490      1
   510   485   492      1
   511   485   493      1
   512   486   487      1
   513   486   494      1
   514   486   495      1
   515   487   488      1
   516   487   489      1
   517   487   496      1
   518   488   497      1
   519   488   498      1
   520   489   490      1
   521   489   499      1
   522   489   500      1
   523   490   491      1
   524   490   501      1
   525   491   502      1
   526   491   503      1
   527   491   507      1
   528   504   505      1
   529   504   509      1
   530   504   511      1
   531   504   512      1
   532   505   506      1
   533   505   513      1
   534   505   514      1
   535   506   507      1
   536   506   508      1
   537   506   515      1
   538   507   516      1
   539   507   517      1
   540   508   509      1
   541   508   518      1
   542   508   519      1
   543   509   510      1
   544   509   520      1
   545   510   521      1
   546   510   522      1
   547   510   526      1
   548   523   524      1
   549   523   528      1
   550   523   530      1
   551   523   531      1
   552   524   525      1
   553   524   532      1
   554   524   533      1
   555   525   526      1
   556   525   527      1
   557   525   534      1
   558   526   535      1
   559   526   536      1
   560   527   528      1
   561   527   537      1
   562   527   538      1
   563   528   529      1
   564   528   539      1
   565   529   540      1
   566   529   541      1
   567   529   545      1
   568   542   543      1
   569   542   547      1
   570   542   549      1
   571   542   550      1
   572   543   544      1
   573   543   551      1
   574   543   552      1
   575   544   545      1
   576   544   546      1
   577   544   553      1
   578   545   554      1
   579   545   555      1
   580   546   547      1
   581   546   556      1
   582   546   557      1
   583   547   548      1
   584   547   558      1
   585   548   559      1
   586   548   560      1
   587   548   564      1
   588   561   562      1
   589   561   566      1
   590   561   568      1
   591   561   569      1
   592   562   563      1
   593   562   570      1
   594   562   571      1
   595   563   564      1
   596   563   565      1
   597   563   572      1
   598   564   573      1
   599   564   574      1
   600   565   566      1
   601   565   575      1
   602   565   576      1
   603   566   567      1
   604   566   577      1
   605   567   578      1
   606   567   579      1
   607   567   583      1
   608   580   581      1
   609   580   585      1
   610   580   587      1
   611   580   588      1
   612   581   582      1
   613   581   589      1
   614   581   590      1
   615   582   583      1
   616   582   584      1
   617   582   591      1
   618   583   592      1
   619   583   593      1
   620   584   585      1
   621   584   594      1
   622   584   595      1
   623   585   586      1
   624   585   596      1
   625   586   597      1
   626   586   598      1
   627   586   602      1
   628   599   600      1
   629   599   604      1
   630   599   606      1
   631   599   607      1
   632   600   601      1
   633   600   608      1
   634   600   609      1
   635   601   602      1
   636   601   603      1
   637   601   610      1
   638   602   611      1
   639   602   612      1
   640   603   604      1
   641   603   613      1
   642   603   614      1
   643   604   605      1
   644   604   615      1
   645   605   616      1
   646   605   617      1
   647   605   621      1
   648   618   619      1
   649   618   623      1
   650   618   625      1
   651   618   626      1
   652   619   620      1
   653   619   627      1
   654   619   628      1
   655   620   621      1
   656   620   622      1
   657   620   629      1
   658   621   630      1
   659   621   631      1
   660   622   623      1
   661   622   632      1
   662   622   633      1
   663   623   624      1
   664   623   634      1
   665   624   635      1
   666   624   636      1
   667   624   640      1
   668   637   638      1
   669   637   642      1
   670   637   644      1
   671   637   645      1
   672   638   639      1
   673   638   646      1
   674   638   647      1
   675   639   640      1
   676   639   641      1
   677   639   648      1
   678   640   649      1
   679   640   650      1
   680   641   642      1
   681   641   651      1
   682   641   652      1
   683   642   643      1
   684   642   653      1
   685   643   654      1
   686   643   655      1
   687   643   659      1
   688   656   657      1
   689   656   661      1
   690   656   663      1
   691   656   664      1
   692   657   658      1
   693   657   665      1
   694   657   666      1
   695   658   659      1
   696   658   660      1
   697   658   667      1
   698   659   668      1
   699   659   669      1
   700   660   661      1
   701   660   670      1
   702   660   671      1
   703   661   662      1
   704   661   672      1
   705   662   673      1
   706   662   674      1
   707   662   675      1
   708   675   676      1
   709   675   677      1
   710   675   678      1
   711   676   679      1
   712   676   680      1
   713   676   684      1
   714   681   682      1
   715   681   686      1
   716   681   688      1
   717   681   689      1
   718   682   683      1
   719   682   690      1
   720   682   691      1
   721   683   684      1
   722   683   685      1
   723   683   692      1
   724   684   693      1
   725   684   694      1
   726   685   686      1
   727   685   695      1
   728   685   696      1
   729   686   687      1
   730   686   697      1
   731   687   698      1
   732   687   699      1
   733   687   703      1
   734   700   701      1
   735   700   705      1
   736   700   707      1
   737   700   708      1
   738   701   702      1
   739   701   709      1
   740   701   710      1
   741   702   703      1
   742   702   704      1
   743   702   711      1
   744   703   712      1
   745   703   713      1
   746   704   705      1
   747   704   714      1
   748   704   715      1
   749   705   706      1
   750   705   716      1
   751   706   717      1
   752   706   718      1
   753   706   722      1
   754   719   720      1
   755   719   724      1
   756   719   726      1
   757   719   727      1
   758   720   721      1
   759   720   728      1
   760   720   729      1
   761   721   722      1
   762   721   723      1
   763   721   730      1
   764   722   731      1
   765   722   732      1
   766   723   724      1
   767   723   733      1
   768   723   734      1
   769   724   725      1
   770   724   735      1
   771   725   736      1
   772   725   737      1
   773   725   741      1
   774   738   739      1
   775   738   743      1
   776   738   745      1
   777   738   746      1
   778   739   740      1
   779   739   747      1
   780   739   748      1
   781   740   741      1
   782   740   742      1
   783   740   749      1
   784   741   750      1
   785   741   751      1
   786   742   743      1
   787   742   752      1
   788   742   753      1
   789   743   744      1
   790   743   754      1
   791   744   755      1
   792   744   756      1
   793   744   760      1
   794   757   758      1
   795   757   762      1
   796   757   764      1
   797   757   765      1
   798   758   759      1
   799   758   766      1
   800   758   767      1
   801   759   760      1
   802   759   761      1
   803   759   768      1
   804   760   769      1
   805   760   770      1
   806   761   762      1
   807   761   771      1
   808   761   772      1
   809   762   763      1
   810   762   773      1
   811   763   774      1
   812   763   775      1
   813   763   779      1
   814   776   777      1
   815   776   781      1
   816   776   783      1
   817   776   784      1
   818   777   778      1
   819   777   785      1
   820   777   786      1
   821   778   779      1
   822   778   780      1
   823   778   787      1
   824   779   788      1
   825   779   789      1
   826   780   781      1
   827   780   790      1
   828   780   791      1
   829   781   782      1
   830   781   792      1
   831   782   793      1
   832   782   794      1
   833   782   795      1
   834   795   796      1
   835   795   797      1
   836   795   798      1
   837   796   799      1
   838   796   800      1
   839   796   804      1
   840   801   802      1
   841   801   806      1
   842   801   808      1
   843   801   809      1
   844   802   803      1
   845   802   810      1
   846   802   811      1
   847   803   804      1
   848   803   805      1
   849   803   812      1
   850   804   813      1
   851   804   814      1
   852   805   806      1
   853   805   815      1
   854   805   816      1
   855   806   807      1
   856   806   817      1
   857   807   818      1
   858   807   819      1
   859   807   823      1
   860   820   821      1
   861   820   825      1
   862   820   827      1
   863   820   828      1
   864   821   822      1
   865   821   829      1
   866   821   830      1
   867   822   823      1
   868   822   824      1
   869   822   831      1
   870   823   832      1
   871   823   833      1
   872   824   825      1
   873   824   834      1
   874   824   835      1
   875   825   826      1
   876   825   836      1
   877   826   837      1
   878   826   838      1
   879   826   839      1
   880   839   840      1
   881   839   841      1
   882   839   842      1
   883   840   843      1
   884   840   844      1
   885   840   848      1
   886   845   846      1
   887   845   850      1
   888   845   852      1
   889   845   853      1
   890   846   847      1
   891   846   854      1
   892   846   855      1
   893   847   848      1
   894   847   849      1
   895   847   856      1
   896   848   857      1
   897   848   858      1
   898   849   850      1
   899   849   859      1
   900   849   860      1
   901   850   851      1
   902   850   861      1
   903   851   862      1
   904   851   863      1
   905   851   867      1
   906   864   865      1
   907   864   869      1
   908   864   871      1
   909   864   872      1
   910   865   866      1
   911   865   873      1
   912   865   874      1
   913   866   867      1
   914   866   868      1
   915   866   875      1
   916   867   876      1
   917   867   877      1
   918   868   869      1
   919   868   878      1
   920   868   879      1
   921   869   870      1
   922   869   880      1
   923   870   881      1
   924   870   882      1
   925   870   883      1
   926   883   884      1
   927   883   885      1
   928   883   886      1
   929   884   887      1
   930   884   888      1
   931   884   892      1
   932   889   890      1
   933   889   894      1
   934   889   896      1
   935   889   897      1
   936   890   891      1
   937   890   898      1
   938   890   899      1
   939   891   892      1
   940   891   893      1
   941   891   900      1
   942   892   901      1
   943   892   902      1
   944   893   894      1
   945   893   903      1
   946   893   904      1
   947   894   895      1
   948   894   905      1
   949   895   906      1
   950   895   907      1
   951   895   908      1
   952   908   909      1
   953   908   910      1
   954   908   911      1
   955   909   912      1
   956   909   913      1
   957   909   917      1
   958   914   915      1
   959   914   919      1
   960   914   921      1
   961   914   922      1
   962   915   916      1
   963   915   923      1
   964   915   924      1
   965   916   917      1
   966   916   918      1
   967   916   925      1
   968   917   926      1
   969   917   927      1
   970   918   919      1
   971   918   928      1
   972   918   929      1
   973   919   920      1
   974   919   930      1
   975   920   931      1
   976   920   932      1
   977   920   936      1
   978   933   934      1
   979   933   938      1
   980   933   940      1
   981   933   941      1
   982   934   935      1
   983   934   942      1
   984   934   943      1
   985   935   936      1
   986   935   937      1
   987   935   944      1
   988   936   945      1
   989   936   946      1
   990   937   938      1
   991   937   947      1
   992   937   948      1
   993   938   939      1
   994   938   949      1
   995   939   950      1
   996   939   951      1
   997   939   955      1
   998   952   953      1
   999   952   957      1
  1000   952   959      1
  1001   952   960      1
  1002   953   954      1
  1003   953   961      1
  1004   953   962      1
  1005   954   955      1
  1006   954   956      1
  1007   954   963      1
  1008   955   964      1
  1009   955   965      1
  1010   956   957      1
  1011   956   966      1
  1012   956   967      1
  1013   957   958      1
  1014   957   968      1
  1015   958   969      1
  1016   958   970      1
  1017   958   971      1
  1018   971   972      1
  1019   971   973      1
  1020   971   974      1
  1021   972   975      1
  1022   972   976      1
  1023   972   980      1
  1024   977   978      1
  1025   977   982      1
  1026   977   984      1
  1027   977   985      1
  1028   978   979      1
  1029   978   986      1
  1030   978   987      1
  1031   979   980      1
  1032   979   981      1
  1033   979   988      1
  1034   980   989      1
  1035   980   990      1
  1036   981   982      1
  1037   981   991      1
  1038   981   992      1
  1039   982   983      1
  1040   982   993      1
  1041   983   994      1
  1042   983   995      1
  1043   983   999      1
  1044   996   997      1
  1045   996  1001      1
  1046   996  1003      1
  1047   996  1004      1
  1048   997   998      1
  1049   997  1005      1
  1050   997  1006      1
  1051   998   999      1
  1052   998  1000      1
  1053   998  1007      1
  1054   999  1008      1
  1055   999  1009      1
  1056  1000  1001      1
  1057  1000  1010      1
  1058  1000  1011      1
  1059  1001  1002      1
  1060  1001  1012      1
  1061  1002  1013      1
  1062  1002  1014      1
  1063  1002  1015      1
  1064  1015  1016      1
  1065  1015  1017      1
  1066  1015  1018      1
  1067  1016  1019      1
  1068  1016  1020      1
  1069  1016  1024      1
  1070  1021  1022      1
  1071  1021  1026      1
  1072  1021  1028      1
  1073  1021  1029      1
  1074  1022  1023      1
  1075  1022  1030      1
  1076  1022  1031      1
  1077  1023  1024      1
  1078  1023  1025      1
  1079  1023  1032      1
  1080  1024  1033      1
  1081  1024  1034      1
  1082  1025  1026      1
  1083  1025  1035      1
  1084  1025  1036      1
  1085  1026  1027      1
  1086  1026  1037      1
  1087  1027  1038      1
  1088  1027  1039      1
  1089  1027  1043      1
  1090  1040  1041      1
  1091  1040  1045      1
  1092  1040  1047      1
  1093  1040  1048      1
  1094  1041  1042      1
  1095  1041  1049      1
  1096  1041  1050      1
  1097  1042  1043      1
  1098  1042  1044      1
  1099  1042  1051      1
  1100  1043  1052      1
  1101  1043  1053      1
  1102  1044  1045      1
  1103  1044  1054      1
  1104  1044  1055      1
  1105  1045  1046      1
  1106  1045  1056      1
  1107  1046  1057      1
  1108  1046  1058      1
  1109  1046  1059      1
  1110  1059  1060      1
  1111  1059  1061      1
  1112  1059  1062      1
  1113  1060  1063      1
  1114  1060  1064      1
  1115  1060  1068      1
  1116  1065  1066      1
  1117  1065  1070      1
  1118  1065  1072      1
  1119  1065  1073      1
  1120  1066  1067      1
  1121  1066  1074      1
  1122  1066  1075      1
  1123  1067  1068      1
  1124  1067  1069      1
  1125  1067  1076      1
  1126  1068  1077      1
  1127  1068  1078      1
  1128  1069  1070      1
  1129  1069  1079      1
  1130  1069  1080      1
  1131  1070  1071      1
  1132  1070  1081      1
  1133  1071  1082      1
  1134  1071  1083      1
  1135  1071  1087      1
  1136  1084  1085      1
  1137  1084  1089      1
  1138  1084  1091      1
  1139  1084  1092      1
  1140  1085  1086      1
  1141  1085  1093      1
  1142  1085  1094      1
  1143  1086  1087      1
  1144  1086  1088      1
  1145  1086  1095      1
  1146  1087  1096      1
  1147  1087  1097      1
  1148  1088  1089      1
  1149  1088  1098      1
  1150  1088  1099      1
  1151  1089  1090      1
  1152  1089  1100      1
  1153  1090  1101      1
  1154  1090  1102      1
  1155  1090  1103      1
  1156  1103  1104      1
  1157  1103  1105      1
  1158  1103  1106      1
  1159  1104  1107      1
  1160  1104  1108      1
  1161  1104  1109      1
  1162  1109  1110      1
  1163  1109  1111      1
  1164  1109  1112      1
  1165  1110  1113      1
  1166  1110  1114      1
  1167  1110  1118      1
  1168  1115  1116      1
  1169  1115  1120      1
  1170  1115  1122      1
  1171  1115  1123      1
  1172  1116  1117      1
  1173  1116  1124      1
  1174  1116  1125      1
  1175  1117  1118      1
  1176  1117  1119      1
  1177  1117  1126      1
  1178  1118  1127      1
  1179  1118  1128      1
  1180  1119  1120      1
  1181  1119  1129      1
  1182  1119  1130      1
  1183  1120  1121      1
  1184  1120  1131      1
  1185  1121  1132      1
  1186  1121  1133      1
  1187  1121  1137      1
  1188  1134  1135      1
  1189  1134  1139      1
  1190  1134  1141      1
  1191  1134  1142      1
  1192  1135  1136      1
  1193  1135  1143      1
  1194  1135  1144      1
  1195  1136  1137      1
  1196  1136  1138      1
  1197  1136  1145      1
  1198  1137  1146      1
  1199  1137  1147      1
  1200  1138  1139      1
  1201  1138  1148      1
  1202  1138  1149      1
  1203  1139  1140      1
  1204  1139  1150      1
  1205  1140  1151      1
  1206  1140  1152      1
  1207  1140  1153      1
  1208  1153  1154      1
  1209  1153  1155      1
  1210  1153  1156      1
  1211  1154  1157      1
  1212  1154  1158      1
  1213  1154  1162      1
  1214  1159  1160      1
  1215  1159  1164      1
  1216  1159  1166      1
  1217  1159  1167      1
  1218  1160  1161      1
  1219  1160  1168      1
  1220  1160  1169      1
  1221  1161  1162      1
  1222  1161  1163      1
  1223  1161  1170      1
  1224  1162  1171      1
  1225  1162  1172      1
  1226  1163  1164      1
  1227  1163  1173      1
  1228  1163  1174      1
  1229  1164  1165      1
  1230  1164  1175      1
  1231  1165  1176      1
  1232  1165  1177      1
  1233  1165  1181      1
  1234  1178  1179      1
  1235  1178  1183      1
  1236  1178  1185      1
  1237  1178  1186      1
  1238  1179  1180      1
  1239  1179  1187      1
  1240  1179  1188      1
  1241  1180  1181      1
  1242  1180  1182      1
  1243  1180  1189      1
  1244  1181  1190      1
  1245  1181  1191      1
  1246  1182  1183      1
  1247  1182  1192      1
  1248  1182  1193      1
  1249  1183  1184      1
  1250  1183  1194      1
  1251  1184  1195      1
  1252  1184  1196      1
  1253  1184  1200      1
  1254  1197  1198      1
  1255  1197  1202      1
  1256  1197  1204      1
  1257  1197  1205      1
  1258  1198  1199      1
  1259  1198  1206      1
  1260  1198  1207      1
  1261  1199  1200      1
  1262  1199  1201      1
  1263  1199  1208      1
  1264  1200  1209      1
  1265  1200  1210      1
  1266  1201  1202      1
  1267  1201  1211      1
  1268  1201  1212      1
  1269  1202  1203      1
  1270  1202  1213      1
  1271  1203  1214      1
  1272  1203  1215      1
  1273  1203  1219      1
  1274  1216  1217      1
  1275  1216  1221      1
  1276  1216  1223      1
  1277  1216  1224      1
  1278  1217  1218      1
  1279  1217  1225      1
  1280  1217  1226      1
  1281  1218  1219      1
  1282  1218  1220      1
  1283  1218  1227      1
  1284  1219  1228      1
  1285  1219  1229      1
  1286  1220  1221      1
  1287  1220  1230      1
  1288  1220  1231      1
  1289  1221  1222      1
  1290  1221  1232      1
  1291  1222  1233      1
  1292  1222  1234      1
  1293  1222  1235      1
  1294  1235  1236      1
  1295  1235  1237      1
  1296  1235  1238      1
  1297  1236  1239      1
  1298  1236  1240      1
  1299  1236  1244      1
  1300  1241  1242      1
  1301  1241  1246      1
  1302  1241  1248      1
  1303  1241  1249      1
  1304  1242  1243      1
  1305  1242  1250      1
  1306  1242  1251      1
  1307  1243  1244      1
  1308  1243  1245      1
  1309  1243  1252      1
  1310  1244  1253      1
  1311  1244  1254      1
  1312  1245  1246      1
  1313  1245  1255      1
  1314  1245  1256      1
  1315  1246  1247      1
  1316  1246  1257      1
  1317  1247  1258      1
  1318  1247  1259      1
  1319  1247  1260      1
  1320  1260  1261      1
  1321  1260  1262      1
  1322  1260  1263      1
  1323  1261  1264      1
  1324  1261  1265      1
  1325  1261  1269      1
  1326  1266  1267      1
  1327  1266  1271      1
  1328  1266  1273      1
  1329  1266  1274      1
  1330  1267  1268      1
  1331  1267  1275      1
  1332  1267  1276      1
  1333  1268  1269      1
  1334  1268  1270      1
  1335  1268  1277      1
  1336  1269  1278      1
  1337  1269  1279      1
  1338  1270  1271      1
  1339  1270  1280      1
  1340  1270  1281      1
  1341  1271  1272      1
  1342  1271  1282      1
  1343  1272  1283      1
  1344  1272  1284      1
  1345  1272  1288      1
  1346  1285  1286      1
  1347  1285  1290      1
  1348  1285  1292      1
  1349  1285  1293      1
  1350  1286  1287      1
  1351  1286  1294      1
  1352  1286  1295      1
  1353  1287  1288      1
  1354  1287  1289      1
  1355  1287  1296      1
  1356  1288  1297      1
  1357  1288  1298      1
  1358  1289  1290      1
  1359  1289  1299      1
  1360  1289  1300      1
  1361  1290  1291      1
  1362  1290  1301      1
  1363  1291  1302      1
  1364  1291  1303      1
  1365  1291  1307      1
  1366  1304  1305      1
  1367  1304  1309      1
  1368  1304  1311      1
  1369  1304  1312      1
  1370  1305  1306      1
  1371  1305  1313      1
  1372  1305  1314      1
  1373  1306  1307      1
  1374  1306  1308      1
  1375  1306  1315      1
  1376  1307  1316      1
  1377  1307  1317      1
  1378  1308  1309      1
  1379  1308  1318      1
  1380  1308  1319      1
  1381  1309  1310      1
  1382  1309  1320      1
  1383  1310  1321      1
  1384  1310  1322      1
  1385  1310  1326      1
  1386  1323  1324      1
  1387  1323  1328      1
  1388  1323  1330      1
  1389  1323  1331      1
  1390  1324  1325      1
  1391  1324  1332      1
  1392  1324  1333      1
  1393  1325  1326      1
  1394  1325  1327      1
  1395  1325  1334      1
  1396  1326  1335      1
  1397  1326  1336      1
  1398  1327  1328      1
  1399  1327  1337      1
  1400  1327  1338      1
  1401  1328  1329      1
  1402  1328  1339      1
  1403  1329  1340      1
  1404  1329  1341      1
  1405  1329  1342      1
  1406  1342  1343      1
  1407  1342  1344      1
  1408  1342  1345      1
  1409  1343  1346      1
  1410  1343  1347      1
  1411  1343  1348      1
  1412  1348  1349      1
  1413  1348  1350      1
  1414  1348  1351      1
  1415  1349  1352      1
  1416  1349  1353      1
  1417  1349  1357      1
  1418  1354  1355      1
  1419  1354  1359      1
  1420  1354  1361      1
  1421  1354  1362      1
  1422  1355  1356      1
  1423  1355  1363      1
  1424  1355  1364      1
  1425  1356  1357      1
  1426  1356  1358      1
  1427  1356  1365      1
  1428  1357  1366      1
  1429  1357  1367      1
  1430  1358  1359      1
  1431  1358  1368      1
  1432  1358  1369      1
  1433  1359  1360      1
  1434  1359  1370      1
  1435  1360  1371      1
  1436  1360  1372      1
  1437  1360  1373      1
  1438  1373  1374      1
  1439  1373  1375      1
  1440  1373  1376      1
  1441  1374  1377      1
  1442  1374  1378      1
  1443  1374  1382      1
  1444  1379  1380      1
  1445  1379  1384      1
  1446  1379  1386      1
  1447  1379  1387      1
  1448  1380  1381      1
  1449  1380  1388      1
  1450  1380  1389      1
  1451  1381  1382      1
  1452  1381  1383      1
  1453  1381  1390      1
  1454  1382  1391      1
  1455  1382  1392      1
  1456  1383  1384      1
  1457  1383  1393      1
  1458  1383  1394      1
  1459  1384  1385      1
  1460  1384  1395      1
  1461  1385  1396      1
  1462  1385  1397      1
  1463  1385  1398      1
  1464  1398  1399      1
  1465  1398  1400      1
  1466  1398  1401      1
  1467  1399  1402      1
  1468  1399  1403      1
  1469  1399  1404      1
  1470  1404  1405      1
  1471  1404  1406      1
  1472  1404  1407      1
  1473  1405  1408      1
  1474  1405  1409      1
  1475  1405  1413      1
  1476  1410  1411      1
  1477  1410  1415      1
  1478  1410  1417      1
  1479  1410  1418      1
  1480  1411  1412      1
  1481  1411  1419      1
  1482  1411  1420      1
  1483  1412  1413      1
  1484  1412  1414      1
  1485  1412  1421      1
  1486  1413  1422      1
  1487  1413  1423      1
  1488  1414  1415      1
  1489  1414  1424      1
  1490  1414  1425      1
  1491  1415  1416      1
  1492  1415  1426      1
  1493  1416  1427      1
  1494  1416  1428      1
  1495  1416  1432      1
  1496  1429  1430      1
  1497  1429  1434      1
  1498  1429  1436      1
  1499  1429  1437      1
  1500  1430  1431      1
  1501  1430  1438      1
  1502  1430  1439      1
  1503  1431  1432      1
  1504  1431  1433      1
  1505  1431  1440      1
  1506  1432  1441      1
  1507  1432  1442      1
  1508  1433  1434      1
  1509  1433  1443      1
  1510  1433  1444      1
  1511  1434  1435      1
  1512  1434  1445      1
  1513  1435  1446      1
  1514  1435  1447      1
  1515  1435  1451      1
  1516  1448  1449      1
  1517  1448  1453      1
  1518  1448  1455      1
  1519  1448  1456      1
  1520  1449  1450      1
  1521  1449  1457      1
  1522  1449  1458      1
  1523  1450  1451      1
  1524  1450  1452      1
  1525  1450  1459      1
  1526  1451  1460      1
  1527  1451  1461      1
  1528  1452  1453      1
  1529  1452  1462      1
  1530  1452  1463      1
  1531  1453  1454      1
  1532  1453  1464      1
  1533  1454  1465      1
  1534  1454  1466      1
  1535  1454  1470      1
  1536  1467  1468      1
  1537  1467  1472      1
  1538  1467  1474      1
  1539  1467  1475      1
  1540  1468  1469      1
  1541  1468  1476      1
  1542  1468  1477      1
  1543  1469  1470      1
  1544  1469  1471      1
  1545  1469  1478      1
  1546  1470  1479      1
  1547  1470  1480      1
  1548  1471  1472      1
  1549  1471  1481      1
  1550  1471  1482      1
  1551  1472  1473      1
  1552  1472  1483      1
  1553  1473  1484      1
  1554  1473  1485      1
  1555  1473  1489      1
  1556  1486  1487      1
  1557  1486  1491      1
  1558  1486  1493      1
  1559  1486  1494      1
  1560  1487  1488      1
  1561  1487  1495      1
  1562  1487  1496      1
  1563  1488  1489      1
  1564  1488  1490      1
  1565  1488  1497      1
  1566  1489  1498      1
  1567  1489  1499      1
  1568  1490  1491      1
  1569  1490  1500      1
  1570  1490  1501      1
  1571  1491  1492      1
  1572  1491  1502      1
  1573  1492  1503      1
  1574  1492  1504      1
  1575  1492  1505      H
