###
### Created by PolyChef-cpp17 on Wed Feb 26 21:14:13 2025
###

@<TRIPOS>MOLECULE
NO_INFO
1267 1325 1 0 0
SMALL
USER_CHARGES


@<TRIPOS>ATOM
      1 C         187.8976  113.0255  234.8034 C.3       0        0    0.0000
      2 C         189.0418  112.1960  234.2375 C.3       0        0    0.0000
      3 C         188.7562  112.2018  232.7321 C.3       0        0    0.0000
      4 C         189.4916  111.1319  231.9193 C.3       0        0    0.0000
      5 C         187.2198  112.1893  232.6107 C.3       0        0    0.0000
      6 C         186.6846  112.5145  234.0190 C.3       0        0    0.0000
      7 C         185.4463  113.4149  234.0632 C.3       0        0    0.0000
      8 H         187.7812  112.8795  235.8817 H         0        0    0.0000
      9 H         188.0871  114.0893  234.6225 H         0        0    0.0000
     10 H         190.0179  112.6318  234.4725 H         0        0    0.0000
     11 H         189.0100  111.1854  234.6591 H         0        0    0.0000
     12 H         189.0956  113.1752  232.3468 H         0        0    0.0000
     13 H         189.0253  110.1572  232.1057 H         0        0    0.0000
     14 H         189.3641  111.3429  230.8509 H         0        0    0.0000
     15 H         186.8264  111.2206  232.2843 H         0        0    0.0000
     16 H         186.9062  112.9197  231.8570 H         0        0    0.0000
     17 H         186.3909  111.5567  234.4743 H         0        0    0.0000
     18 H         184.8604  113.1742  234.9582 H         0        0    0.0000
     19 H         185.7656  114.4587  234.1670 H         0        0    0.0000
     20 C         182.4482  110.4597  231.6206 C.3       1        0    0.0000
     21 C         183.0189  111.1998  232.8327 C.3       1        0    0.0000
     22 C         184.3434  111.8370  232.3758 C.3       1        0    0.0000
     23 C         184.5230  113.2959  232.8136 C.3       1        0    0.0000
     24 C         184.3360  111.6820  230.8516 C.3       1        0    0.0000
     25 C         183.5888  110.3677  230.6011 C.3       1        0    0.0000
     26 C         184.4867  109.1330  230.8070 C.3       1        0    0.0000
     27 H         182.0245  109.4897  231.8979 H         1        0    0.0000
     28 H         181.6320  111.0570  231.1942 H         1        0    0.0000
     29 H         182.2950  111.9372  233.1966 H         1        0    0.0000
     30 H         183.2073  110.4984  233.6539 H         1        0    0.0000
     31 H         185.1719  111.2352  232.7760 H         1        0    0.0000
     32 H         184.9720  113.8685  231.9934 H         1        0    0.0000
     33 H         183.5503  113.7544  233.0260 H         1        0    0.0000
     34 H         185.3483  111.6818  230.4345 H         1        0    0.0000
     35 H         183.7859  112.5100  230.3861 H         1        0    0.0000
     36 H         183.1877  110.3614  229.5797 H         1        0    0.0000
     37 H         183.9369  108.2064  230.6083 H         1        0    0.0000
     38 H         184.8140  109.0913  231.8526 H         1        0    0.0000
     39 C         185.7537  109.1834  229.9047 C.3       2        0    0.0000
     40 C         185.9582  107.9273  229.0457 C.3       2        0    0.0000
     41 H         185.6287  110.0403  229.2305 H         2        0    0.0000
     42 H         186.6367  109.3944  230.5193 H         2        0    0.0000
     43 H         187.0208  107.6713  228.9600 H         2        0    0.0000
     44 H         185.4725  107.0845  229.5539 H         2        0    0.0000
     45 C         185.5750  110.0824  224.5400 C.3       3        0    0.0000
     46 C         186.1329  108.8948  225.3282 C.3       3        0    0.0000
     47 C         185.8893  109.2011  226.8169 C.3       3        0    0.0000
     48 C         185.3207  108.0223  227.6163 C.3       3        0    0.0000
     49 C         184.9472  110.4093  226.8091 C.3       3        0    0.0000
     50 C         185.3478  111.2028  225.5608 C.3       3        0    0.0000
     51 C         186.5979  112.0724  225.7935 C.3       3        0    0.0000
     52 H         186.2313  110.3660  223.7118 H         3        0    0.0000
     53 H         184.6108  109.7940  224.1021 H         3        0    0.0000
     54 H         185.6507  107.9674  225.0001 H         3        0    0.0000
     55 H         187.2076  108.7845  225.1421 H         3        0    0.0000
     56 H         186.8430  109.5149  227.2650 H         3        0    0.0000
     57 H         184.2369  108.1471  227.7263 H         3        0    0.0000
     58 H         185.4789  107.0816  227.0763 H         3        0    0.0000
     59 H         185.0258  110.9966  227.7297 H         3        0    0.0000
     60 H         183.9043  110.0798  226.7140 H         3        0    0.0000
     61 H         184.5122  111.8411  225.2467 H         3        0    0.0000
     62 H         187.5109  111.5363  225.5117 H         3        0    0.0000
     63 H         186.6835  112.3082  226.8609 H         3        0    0.0000
     64 C         186.5240  113.4126  225.0060 C.3       4        0    0.0000
     65 C         187.8957  114.0088  224.6591 C.3       4        0    0.0000
     66 H         185.9980  113.1994  224.0666 H         4        0    0.0000
     67 H         185.9044  114.1306  225.5560 H         4        0    0.0000
     68 H         188.4477  114.2919  225.5631 H         4        0    0.0000
     69 H         188.4884  113.2316  224.1600 H         4        0    0.0000
     70 C         184.8425  116.0763  222.6106 C.3       5        0    0.0000
     71 C         185.5167  114.7108  222.7691 C.3       5        0    0.0000
     72 C         186.9958  114.9108  222.4211 C.3       5        0    0.0000
     73 C         187.8300  115.2289  223.6764 C.3       5        0    0.0000
     74 C         186.9332  116.0492  221.3948 C.3       5        0    0.0000
     75 C         185.8758  117.0055  221.9522 C.3       5        0    0.0000
     76 C         185.3011  117.9316  220.8743 C.3       5        0    0.0000
     77 H         183.9314  115.9716  222.0106 H         5        0    0.0000
     78 H         184.5439  116.4743  223.5871 H         5        0    0.0000
     79 H         185.0680  114.0099  222.0538 H         5        0    0.0000
     80 H         185.3611  114.2916  223.7684 H         5        0    0.0000
     81 H         187.3933  114.0025  221.9503 H         5        0    0.0000
     82 H         187.3745  116.0737  224.2071 H         5        0    0.0000
     83 H         188.8462  115.5386  223.4102 H         5        0    0.0000
     84 H         186.6096  115.6473  220.4258 H         5        0    0.0000
     85 H         187.8931  116.5501  221.2373 H         5        0    0.0000
     86 H         186.3412  117.6172  222.7377 H         5        0    0.0000
     87 H         185.3753  118.9782  221.1918 H         5        0    0.0000
     88 H         184.2348  117.7152  220.7392 H         5        0    0.0000
     89 C         184.9601  121.0713  218.0740 C.3       6        0    0.0000
     90 C         184.7484  119.9025  219.0398 C.3       6        0    0.0000
     91 C         185.4943  118.7050  218.4367 C.3       6        0    0.0000
     92 C         186.0247  117.7495  219.5092 C.3       6        0    0.0000
     93 C         186.5779  119.3660  217.5783 C.3       6        0    0.0000
     94 C         185.8251  120.5313  216.9276 C.3       6        0    0.0000
     95 C         186.7241  121.6108  216.3184 C.3       6        0    0.0000
     96 H         184.0066  121.4577  217.6982 H         6        0    0.0000
     97 H         185.4592  121.8938  218.6002 H         6        0    0.0000
     98 H         183.6842  119.6778  219.1690 H         6        0    0.0000
     99 H         185.1465  120.1677  220.0266 H         6        0    0.0000
    100 H         184.8006  118.1678  217.7736 H         6        0    0.0000
    101 H         187.0965  117.9291  219.6560 H         6        0    0.0000
    102 H         185.9210  116.7098  219.1772 H         6        0    0.0000
    103 H         186.9867  118.6762  216.8331 H         6        0    0.0000
    104 H         187.4042  119.7309  218.2010 H         6        0    0.0000
    105 H         185.1556  120.1280  216.1538 H         6        0    0.0000
    106 H         187.3351  121.1869  215.5129 H         6        0    0.0000
    107 H         187.4193  121.9769  217.0833 H         6        0    0.0000
    108 C         185.9119  122.8167  215.7713 C.3       7        0    0.0000
    109 C         186.6840  123.6852  214.7679 C.3       7        0    0.0000
    110 H         185.0351  122.4015  215.2582 H         7        0    0.0000
    111 H         185.5314  123.4155  216.6072 H         7        0    0.0000
    112 H         187.3707  124.3702  215.2789 H         7        0    0.0000
    113 H         187.3038  123.0225  214.1503 H         7        0    0.0000
    114 C         185.7664  124.4922  213.7854 C.3       8        0    0.0000
    115 C         186.3336  124.6192  212.3643 C.3       8        0    0.0000
    116 H         185.6658  125.5021  214.2033 H         8        0    0.0000
    117 H         184.7609  124.0554  213.7760 H         8        0    0.0000
    118 H         186.8154  125.6014  212.2766 H         8        0    0.0000
    119 H         187.1122  123.8704  212.1772 H         8        0    0.0000
    120 C         185.2474  124.5454  211.2358 C.3       9        0    0.0000
    121 C         185.6292  123.6335  210.0611 C.3       9        0    0.0000
    122 H         184.3373  124.1422  211.6980 H         9        0    0.0000
    123 H         185.0025  125.5573  210.8921 H         9        0    0.0000
    124 H         186.5105  124.0135  209.5312 H         9        0    0.0000
    125 H         185.9064  122.6525  210.4678 H         9        0    0.0000
    126 C         184.4644  123.3877  209.0406 C.3      10        0    0.0000
    127 C         184.9230  123.3090  207.5774 C.3      10        0    0.0000
    128 H         183.7751  124.2365  209.1362 H        10        0    0.0000
    129 H         183.9016  122.4928  209.3309 H        10        0    0.0000
    130 H         185.5786  124.1667  207.3796 H        10        0    0.0000
    131 H         185.5213  122.4086  207.3948 H        10        0    0.0000
    132 C         183.6808  122.5672  202.8268 C.3      11        0    0.0000
    133 C         183.0605  123.2354  204.0460 C.3      11        0    0.0000
    134 C         184.1837  123.1599  205.0854 C.3      11        0    0.0000
    135 C         183.7518  123.3851  206.5376 C.3      11        0    0.0000
    136 C         184.9061  121.8274  204.8061 C.3      11        0    0.0000
    137 C         184.3986  121.3552  203.4296 C.3      11        0    0.0000
    138 C         185.4485  120.6978  202.5286 C.3      11        0    0.0000
    139 H         182.9243  122.2738  202.0924 H        11        0    0.0000
    140 H         184.3773  123.2588  202.3402 H        11        0    0.0000
    141 H         182.7610  124.2673  203.8385 H        11        0    0.0000
    142 H         182.1704  122.6792  204.3600 H        11        0    0.0000
    143 H         184.8967  123.9625  204.8434 H        11        0    0.0000
    144 H         183.2710  124.3671  206.6199 H        11        0    0.0000
    145 H         182.9938  122.6397  206.8058 H        11        0    0.0000
    146 H         184.6911  121.0607  205.5582 H        11        0    0.0000
    147 H         185.9896  121.9867  204.8287 H        11        0    0.0000
    148 H         183.6294  120.5918  203.6213 H        11        0    0.0000
    149 H         186.1782  120.1708  203.1547 H        11        0    0.0000
    150 H         184.9613  119.9384  201.9056 H        11        0    0.0000
    151 C         187.3691  125.0137  202.9627 C.3      12        0    0.0000
    152 C         187.0766  123.5223  203.1460 C.3      12        0    0.0000
    153 C         186.0608  123.1459  202.0594 C.3      12        0    0.0000
    154 C         186.2100  121.6923  201.6016 C.3      12        0    0.0000
    155 C         186.3173  124.1890  200.9666 C.3      12        0    0.0000
    156 C         186.5179  125.4765  201.7729 C.3      12        0    0.0000
    157 C         187.1764  126.6198  200.9959 C.3      12        0    0.0000
    158 H         187.1247  125.5835  203.8656 H        12        0    0.0000
    159 H         188.4393  125.1547  202.7693 H        12        0    0.0000
    160 H         186.6792  123.3122  204.1449 H        12        0    0.0000
    161 H         188.0073  122.9520  203.0402 H        12        0    0.0000
    162 H         185.0509  123.3039  202.4650 H        12        0    0.0000
    163 H         187.2725  121.4214  201.5975 H        12        0    0.0000
    164 H         185.8510  121.5792  200.5720 H        12        0    0.0000
    165 H         185.4754  124.2687  200.2716 H        12        0    0.0000
    166 H         187.2180  123.9416  200.3909 H        12        0    0.0000
    167 H         185.5415  125.8052  202.1575 H        12        0    0.0000
    168 H         188.2084  126.7658  201.3358 H        12        0    0.0000
    169 H         186.6404  127.5538  201.2028 H        12        0    0.0000
    170 C         187.1671  126.3743  199.4621 C.3      13        0    0.0000
    171 C         186.5070  127.5006  198.6540 C.3      13        0    0.0000
    172 H         188.2157  126.2986  199.1470 H        13        0    0.0000
    173 H         186.7042  125.4042  199.2461 H        13        0    0.0000
    174 H         185.6577  127.9346  199.1947 H        13        0    0.0000
    175 H         187.2427  128.3052  198.5276 H        13        0    0.0000
    176 C         188.6054  125.5734  195.0431 C.3      14        0    0.0000
    177 C         188.2979  126.1454  196.4262 C.3      14        0    0.0000
    178 C         186.8171  125.8399  196.7105 C.3      14        0    0.0000
    179 C         186.0539  127.0715  197.2155 C.3      14        0    0.0000
    180 C         186.2762  125.2653  195.3921 C.3      14        0    0.0000
    181 C         187.4819  124.5797  194.7370 C.3      14        0    0.0000
    182 C         187.7914  123.1788  195.2958 C.3      14        0    0.0000
    183 H         188.5773  126.3880  194.3081 H        14        0    0.0000
    184 H         189.6042  125.1286  194.9945 H        14        0    0.0000
    185 H         188.5257  127.2165  196.4559 H        14        0    0.0000
    186 H         188.9252  125.6617  197.1843 H        14        0    0.0000
    187 H         186.7764  125.0540  197.4780 H        14        0    0.0000
    188 H         184.9747  126.8794  197.2104 H        14        0    0.0000
    189 H         186.2292  127.9112  196.5322 H        14        0    0.0000
    190 H         185.4327  124.5874  195.5553 H        14        0    0.0000
    191 H         185.9254  126.0752  194.7392 H        14        0    0.0000
    192 H         187.3345  124.5114  193.6516 H        14        0    0.0000
    193 H         187.3816  123.0536  196.3038 H        14        0    0.0000
    194 H         188.8779  123.0566  195.3820 H        14        0    0.0000
    195 C         187.2527  122.0497  194.3723 C.3      15        0    0.0000
    196 C         188.3231  121.0420  193.9295 C.3      15        0    0.0000
    197 H         186.4910  121.5070  194.9467 H        15        0    0.0000
    198 H         186.7394  122.4911  193.5100 H        15        0    0.0000
    199 H         189.1842  121.0508  194.6080 H        15        0    0.0000
    200 H         187.8883  120.0359  193.9875 H        15        0    0.0000
    201 C         187.5383  124.6657  192.7865 C.3      16        0    0.0000
    202 C         188.5950  123.6586  193.2378 C.3      16        0    0.0000
    203 C         188.8457  122.7185  192.0461 C.3      16        0    0.0000
    204 C         188.8120  121.2394  192.4528 C.3      16        0    0.0000
    205 C         187.7797  123.1074  191.0102 C.3      16        0    0.0000
    206 C         187.5153  124.5981  191.2573 C.3      16        0    0.0000
    207 C         188.5614  125.5368  190.6289 C.3      16        0    0.0000
    208 H         186.5611  124.3534  193.1766 H        16        0    0.0000
    209 H         187.7349  125.6702  193.1741 H        16        0    0.0000
    210 H         188.2587  123.1287  194.1357 H        16        0    0.0000
    211 H         189.5251  124.1769  193.4993 H        16        0    0.0000
    212 H         189.8371  122.9539  191.6339 H        16        0    0.0000
    213 H         189.8029  120.7875  192.3286 H        16        0    0.0000
    214 H         188.1307  120.6962  191.7868 H        16        0    0.0000
    215 H         188.1037  122.8922  189.9873 H        16        0    0.0000
    216 H         186.8538  122.5446  191.1868 H        16        0    0.0000
    217 H         186.5177  124.8712  190.8902 H        16        0    0.0000
    218 H         189.5777  125.2524  190.9222 H        16        0    0.0000
    219 H         188.4017  126.5559  191.0013 H        16        0    0.0000
    220 C         185.3574  124.3502  187.3116 C.3      17        0    0.0000
    221 C         186.0353  125.0578  188.4877 C.3      17        0    0.0000
    222 C         187.4750  124.5295  188.5363 C.3      17        0    0.0000
    223 C         188.4589  125.5703  189.0777 C.3      17        0    0.0000
    224 C         187.7358  124.0960  187.0899 C.3      17        0    0.0000
    225 C         186.4156  123.4238  186.6984 C.3      17        0    0.0000
    226 C         186.2192  123.2325  185.1920 C.3      17        0    0.0000
    227 H         184.4798  123.7820  187.6383 H        17        0    0.0000
    228 H         185.0098  125.0969  186.5876 H        17        0    0.0000
    229 H         185.5122  124.8596  189.4294 H        17        0    0.0000
    230 H         186.0110  126.1420  188.3247 H        17        0    0.0000
    231 H         187.4909  123.6368  189.1783 H        17        0    0.0000
    232 H         188.1320  126.5712  188.7714 H        17        0    0.0000
    233 H         189.4534  125.4159  188.6429 H        17        0    0.0000
    234 H         188.5832  123.4071  187.0160 H        17        0    0.0000
    235 H         187.9396  124.9639  186.4503 H        17        0    0.0000
    236 H         186.3539  122.4500  187.2058 H        17        0    0.0000
    237 H         185.7689  124.1291  184.7503 H        17        0    0.0000
    238 H         185.5164  122.4084  185.0204 H        17        0    0.0000
    239 C         185.7665  123.9275  181.3685 C.3      18        0    0.0000
    240 C         186.3902  122.7742  182.1582 C.3      18        0    0.0000
    241 C         187.5264  123.3814  183.0006 C.3      18        0    0.0000
    242 C         187.5497  122.9076  184.4591 C.3      18        0    0.0000
    243 C         187.3226  124.8952  182.8822 C.3      18        0    0.0000
    244 C         186.7494  125.0984  181.4756 C.3      18        0    0.0000
    245 C         187.8399  125.0750  180.3878 C.3      18        0    0.0000
    246 H         185.5351  123.6380  180.3390 H        18        0    0.0000
    247 H         184.8183  124.2091  181.8441 H        18        0    0.0000
    248 H         185.6254  122.2805  182.7679 H        18        0    0.0000
    249 H         186.7964  122.0195  181.4747 H        18        0    0.0000
    250 H         188.4835  123.1275  182.5230 H        18        0    0.0000
    251 H         187.7058  121.8225  184.4859 H        18        0    0.0000
    252 H         188.3898  123.3628  184.9962 H        18        0    0.0000
    253 H         188.2530  125.4484  183.0463 H        18        0    0.0000
    254 H         186.5949  125.2421  183.6274 H        18        0    0.0000
    255 H         186.2108  126.0536  181.4322 H        18        0    0.0000
    256 H         187.9716  124.0662  179.9811 H        18        0    0.0000
    257 H         188.8000  125.3685  180.8286 H        18        0    0.0000
    258 C         188.8110  129.5334  179.4266 C.3      19        0    0.0000
    259 C         188.8019  128.1388  180.0573 C.3      19        0    0.0000
    260 C         187.4382  127.5110  179.7176 C.3      19        0    0.0000
    261 C         187.5189  126.0603  179.2268 C.3      19        0    0.0000
    262 C         186.8366  128.4498  178.6669 C.3      19        0    0.0000
    263 C         187.3579  129.8396  179.0478 C.3      19        0    0.0000
    264 C         186.5532  130.4740  180.1981 C.3      19        0    0.0000
    265 H         189.2606  130.2778  180.0906 H        19        0    0.0000
    266 H         189.4219  129.5048  178.5152 H        19        0    0.0000
    267 H         189.6465  127.5515  179.6806 H        19        0    0.0000
    268 H         188.9174  128.2113  181.1451 H        19        0    0.0000
    269 H         186.8055  127.5538  180.6157 H        19        0    0.0000
    270 H         186.5583  125.7733  178.7824 H        19        0    0.0000
    271 H         188.2748  125.9641  178.4389 H        19        0    0.0000
    272 H         185.7433  128.3965  178.6472 H        19        0    0.0000
    273 H         187.1995  128.1848  177.6654 H        19        0    0.0000
    274 H         187.3232  130.4987  178.1710 H        19        0    0.0000
    275 H         187.2138  130.9783  180.9120 H        19        0    0.0000
    276 H         186.0274  129.6870  180.7516 H        19        0    0.0000
    277 C         185.4945  131.4864  179.6726 C.3      20        0    0.0000
    278 C         185.5492  132.8588  180.3587 C.3      20        0    0.0000
    279 H         185.6981  131.6316  178.6039 H        20        0    0.0000
    280 H         184.4937  131.0445  179.7437 H        20        0    0.0000
    281 H         184.5530  133.3116  180.4252 H        20        0    0.0000
    282 H         185.8959  132.7106  181.3894 H        20        0    0.0000
    283 C         190.0919  133.7883  178.7484 C.3      21        0    0.0000
    284 C         189.0479  133.3799  179.7867 C.3      21        0    0.0000
    285 C         187.7309  133.1564  179.0235 C.3      21        0    0.0000
    286 C         186.5443  133.8676  179.6872 C.3      21        0    0.0000
    287 C         188.0235  133.6303  177.5915 C.3      21        0    0.0000
    288 C         189.5222  133.3729  177.3896 C.3      21        0    0.0000
    289 C         189.8708  131.9129  177.0470 C.3      21        0    0.0000
    290 H         190.2087  134.8793  178.7728 H        21        0    0.0000
    291 H         191.0739  133.3534  178.9592 H        21        0    0.0000
    292 H         188.9646  134.1453  180.5660 H        21        0    0.0000
    293 H         189.3491  132.4487  180.2808 H        21        0    0.0000
    294 H         187.5335  132.0753  179.0014 H        21        0    0.0000
    295 H         186.0088  134.4809  178.9532 H        21        0    0.0000
    296 H         186.9176  134.5514  180.4589 H        21        0    0.0000
    297 H         187.3966  133.1195  176.8540 H        21        0    0.0000
    298 H         187.8286  134.7067  177.4992 H        21        0    0.0000
    299 H         189.9170  134.0322  176.6062 H        21        0    0.0000
    300 H         189.0852  131.2274  177.3826 H        21        0    0.0000
    301 H         190.7854  131.6258  177.5798 H        21        0    0.0000
    302 C         192.3566  134.6006  175.8834 C.3      22        0    0.0000
    303 C         192.1605  133.1099  176.1548 C.3      22        0    0.0000
    304 C         191.2875  132.5645  175.0114 C.3      22        0    0.0000
    305 C         190.1186  131.7134  175.5250 C.3      22        0    0.0000
    306 C         190.8556  133.8095  174.2213 C.3      22        0    0.0000
    307 C         192.0006  134.8127  174.4097 C.3      22        0    0.0000
    308 C         193.2107  134.5688  173.4896 C.3      22        0    0.0000
    309 H         191.6578  135.1702  176.5094 H        22        0    0.0000
    310 H         193.3666  134.9361  176.1391 H        22        0    0.0000
    311 H         191.7131  132.9572  177.1431 H        22        0    0.0000
    312 H         193.1282  132.5945  176.1564 H        22        0    0.0000
    313 H         191.9257  131.9442  174.3665 H        22        0    0.0000
    314 H         190.2995  130.6526  175.3165 H        22        0    0.0000
    315 H         189.2047  131.9907  174.9860 H        22        0    0.0000
    316 H         190.6546  133.5793  173.1704 H        22        0    0.0000
    317 H         189.9356  134.2307  174.6472 H        22        0    0.0000
    318 H         191.6345  135.8367  174.2616 H        22        0    0.0000
    319 H         193.2445  133.5298  173.1445 H        22        0    0.0000
    320 H         194.1345  134.7411  174.0551 H        22        0    0.0000
    321 C         194.7396  138.9044  172.1441 C.3      23        0    0.0000
    322 C         194.7143  137.5412  172.8397 C.3      23        0    0.0000
    323 C         193.2830  136.9958  172.6874 C.3      23        0    0.0000
    324 C         193.2132  135.5239  172.2626 C.3      23        0    0.0000
    325 C         192.6251  137.9297  171.6665 C.3      23        0    0.0000
    326 C         193.2750  139.2946  171.9172 C.3      23        0    0.0000
    327 C         192.6514  140.0304  173.1184 C.3      23        0    0.0000
    328 H         195.3098  139.6429  172.7157 H        23        0    0.0000
    329 H         195.2376  138.7958  171.1721 H        23        0    0.0000
    330 H         195.4702  136.8816  172.3993 H        23        0    0.0000
    331 H         194.9596  137.6506  173.9026 H        23        0    0.0000
    332 H         192.7627  137.1196  173.6480 H        23        0    0.0000
    333 H         192.2945  135.3549  171.6882 H        23        0    0.0000
    334 H         194.0514  135.2760  171.6012 H        23        0    0.0000
    335 H         191.5357  137.9514  171.7730 H        23        0    0.0000
    336 H         192.8517  137.5988  170.6446 H        23        0    0.0000
    337 H         193.1811  139.9175  171.0186 H        23        0    0.0000
    338 H         193.2869  140.8599  173.4477 H        23        0    0.0000
    339 H         192.5665  139.3386  173.9649 H        23        0    0.0000
    340 C         190.7717  138.6301  169.5544 C.3      24        0    0.0000
    341 C         191.2146  138.6894  171.0096 C.3      24        0    0.0000
    342 C         190.6327  140.0231  171.4898 C.3      24        0    0.0000
    343 C         191.2293  140.5705  172.7900 C.3      24        0    0.0000
    344 C         190.7168  140.9642  170.2722 C.3      24        0    0.0000
    345 C         191.0221  140.0594  169.0625 C.3      24        0    0.0000
    346 C         190.3142  140.4393  167.7583 C.3      24        0    0.0000
    347 H         191.3434  137.8923  168.9828 H        24        0    0.0000
    348 H         189.7124  138.3554  169.5009 H        24        0    0.0000
    349 H         190.8330  137.8422  171.5880 H        24        0    0.0000
    350 H         192.3086  138.6735  171.0644 H        24        0    0.0000
    351 H         189.5630  139.8528  171.6842 H        24        0    0.0000
    352 H         191.2729  141.6645  172.7311 H        24        0    0.0000
    353 H         190.5589  140.3264  173.6226 H        24        0    0.0000
    354 H         191.5033  141.7200  170.3717 H        24        0    0.0000
    355 H         189.7740  141.5118  170.1671 H        24        0    0.0000
    356 H         192.1019  140.1452  168.8683 H        24        0    0.0000
    357 H         190.9433  140.1436  166.9103 H        24        0    0.0000
    358 H         189.3836  139.8655  167.6753 H        24        0    0.0000
    359 C         189.0333  142.9997  164.1293 C.3      25        0    0.0000
    360 C         188.9058  142.0761  165.3311 C.3      25        0    0.0000
    361 C         190.1097  142.4653  166.1915 C.3      25        0    0.0000
    362 C         189.9804  141.9559  167.6292 C.3      25        0    0.0000
    363 C         190.1773  143.9974  166.0549 C.3      25        0    0.0000
    364 C         189.4295  144.3448  164.7512 C.3      25        0    0.0000
    365 C         190.1603  145.3114  163.8107 C.3      25        0    0.0000
    366 H         188.0971  143.0694  163.5665 H        25        0    0.0000
    367 H         189.8033  142.6148  163.4519 H        25        0    0.0000
    368 H         187.9636  142.2677  165.8589 H        25        0    0.0000
    369 H         188.9280  141.0212  165.0413 H        25        0    0.0000
    370 H         191.0135  142.0396  165.7317 H        25        0    0.0000
    371 H         190.6382  142.5283  168.2939 H        25        0    0.0000
    372 H         188.9554  142.1219  167.9815 H        25        0    0.0000
    373 H         189.6772  144.4933  166.8961 H        25        0    0.0000
    374 H         191.2174  144.3402  166.0579 H        25        0    0.0000
    375 H         188.4974  144.8479  165.0489 H        25        0    0.0000
    376 H         191.1523  144.9054  163.5801 H        25        0    0.0000
    377 H         190.3236  146.2613  164.3337 H        25        0    0.0000
    378 C         192.1168  145.6564  159.9370 C.3      26        0    0.0000
    379 C         191.7554  145.8026  161.4171 C.3      26        0    0.0000
    380 C         190.3088  146.3261  161.4674 C.3      26        0    0.0000
    381 C         189.4121  145.5995  162.4774 C.3      26        0    0.0000
    382 C         189.8011  146.1844  160.0288 C.3      26        0    0.0000
    383 C         191.0399  146.4192  159.1577 C.3      26        0    0.0000
    384 C         191.3624  147.9157  158.9861 C.3      26        0    0.0000
    385 H         193.1358  145.9974  159.7309 H        26        0    0.0000
    386 H         192.0723  144.5938  159.6658 H        26        0    0.0000
    387 H         191.8784  144.8421  161.9297 H        26        0    0.0000
    388 H         192.4273  146.5184  161.9050 H        26        0    0.0000
    389 H         190.3379  147.3969  161.7150 H        26        0    0.0000
    390 H         188.5356  146.2206  162.6974 H        26        0    0.0000
    391 H         189.0379  144.6613  162.0517 H        26        0    0.0000
    392 H         188.9884  146.8846  159.8099 H        26        0    0.0000
    393 H         189.4198  145.1696  159.8566 H        26        0    0.0000
    394 H         190.8878  145.9629  158.1713 H        26        0    0.0000
    395 H         192.4227  148.0682  158.7564 H        26        0    0.0000
    396 H         191.1615  148.4415  159.9272 H        26        0    0.0000
    397 C         190.4950  148.5694  157.8716 C.3      27        0    0.0000
    398 C         189.1841  149.1848  158.3817 C.3      27        0    0.0000
    399 H         191.0990  149.3724  157.4301 H        27        0    0.0000
    400 H         190.3096  147.8414  157.0731 H        27        0    0.0000
    401 H         189.2470  149.4299  159.4484 H        27        0    0.0000
    402 H         189.0237  150.1322  157.8512 H        27        0    0.0000
    403 C         187.3011  144.5724  158.4201 C.3      28        0    0.0000
    404 C         187.2058  145.9715  159.0092 C.3      28        0    0.0000
    405 C         188.1841  146.7876  158.1548 C.3      28        0    0.0000
    406 C         187.9184  148.2979  158.1170 C.3      28        0    0.0000
    407 C         188.2218  146.0877  156.7806 C.3      28        0    0.0000
    408 C         187.3344  144.8365  156.9134 C.3      28        0    0.0000
    409 C         187.8226  143.6188  156.1247 C.3      28        0    0.0000
    410 H         188.2222  144.0808  158.7563 H        28        0    0.0000
    411 H         186.4523  143.9464  158.7119 H        28        0    0.0000
    412 H         186.1768  146.3364  158.9213 H        28        0    0.0000
    413 H         187.4772  145.9878  160.0694 H        28        0    0.0000
    414 H         189.1824  146.6599  158.5992 H        28        0    0.0000
    415 H         187.5038  148.5618  157.1367 H        28        0    0.0000
    416 H         187.1505  148.5452  158.8596 H        28        0    0.0000
    417 H         189.2587  145.8158  156.5471 H        28        0    0.0000
    418 H         187.8700  146.7262  155.9635 H        28        0    0.0000
    419 H         186.3178  145.1008  156.5876 H        28        0    0.0000
    420 H         188.8953  143.7084  155.9164 H        28        0    0.0000
    421 H         187.6949  142.7169  156.7351 H        28        0    0.0000
    422 C         183.6396  141.8548  155.3365 C.3      29        0    0.0000
    423 C         185.1110  141.9842  155.7049 C.3      29        0    0.0000
    424 C         185.5431  143.2447  154.9484 C.3      29        0    0.0000
    425 C         187.0551  143.4283  154.7864 C.3      29        0    0.0000
    426 C         184.7313  143.2299  153.6383 C.3      29        0    0.0000
    427 C         183.6344  142.1655  153.8361 C.3      29        0    0.0000
    428 C         182.2656  142.5093  153.2407 C.3      29        0    0.0000
    429 H         183.2510  140.8544  155.5506 H        29        0    0.0000
    430 H         183.0497  142.5788  155.9093 H        29        0    0.0000
    431 H         185.2547  142.0834  156.7852 H        29        0    0.0000
    432 H         185.6560  141.0950  155.3693 H        29        0    0.0000
    433 H         185.1846  144.1057  155.5325 H        29        0    0.0000
    434 H         187.4677  142.5567  154.2647 H        29        0    0.0000
    435 H         187.2439  144.2976  154.1453 H        29        0    0.0000
    436 H         185.3386  142.9716  152.7641 H        29        0    0.0000
    437 H         184.3255  144.2293  153.4479 H        29        0    0.0000
    438 H         183.9797  141.2565  153.3210 H        29        0    0.0000
    439 H         181.6887  141.5857  153.1126 H        29        0    0.0000
    440 H         181.7107  143.1310  153.9533 H        29        0    0.0000
    441 C         179.0419  144.9282  151.0908 C.3      30        0    0.0000
    442 C         180.1530  144.5463  152.0568 C.3      30        0    0.0000
    443 C         180.9448  143.4987  151.2715 C.3      30        0    0.0000
    444 C         182.3308  143.2527  151.8727 C.3      30        0    0.0000
    445 C         180.9551  144.0497  149.8338 C.3      30        0    0.0000
    446 C         179.7587  145.0187  149.7376 C.3      30        0    0.0000
    447 C         178.8610  144.8360  148.5073 C.3      30        0    0.0000
    448 H         178.5683  145.8756  151.3668 H        30        0    0.0000
    449 H         178.2683  144.1527  151.0976 H        30        0    0.0000
    450 H         180.7734  145.4210  152.2869 H        30        0    0.0000
    451 H         179.7594  144.1484  152.9972 H        30        0    0.0000
    452 H         180.3717  142.5601  151.2751 H        30        0    0.0000
    453 H         182.9479  142.6732  151.1759 H        30        0    0.0000
    454 H         182.8384  144.2137  152.0182 H        30        0    0.0000
    455 H         181.8798  144.6029  149.6275 H        30        0    0.0000
    456 H         180.9057  143.2327  149.1064 H        30        0    0.0000
    457 H         180.1809  146.0320  149.6650 H        30        0    0.0000
    458 H         179.4205  144.2988  147.7322 H        30        0    0.0000
    459 H         178.6194  145.8223  148.0936 H        30        0    0.0000
    460 C         174.8089  143.5122  146.2162 C.3      31        0    0.0000
    461 C         176.2539  143.3383  146.6580 C.3      31        0    0.0000
    462 C         176.4109  144.3681  147.7840 C.3      31        0    0.0000
    463 C         177.5333  144.0751  148.7879 C.3      31        0    0.0000
    464 C         175.0043  144.5364  148.3944 C.3      31        0    0.0000
    465 C         174.0614  143.6673  147.5423 C.3      31        0    0.0000
    466 C         172.6574  144.2457  147.3492 C.3      31        0    0.0000
    467 H         174.7068  144.4116  145.5968 H        31        0    0.0000
    468 H         174.4514  142.6550  145.6375 H        31        0    0.0000
    469 H         176.4078  142.3130  147.0114 H        31        0    0.0000
    470 H         176.9563  143.5187  145.8382 H        31        0    0.0000
    471 H         176.6635  145.3277  147.3088 H        31        0    0.0000
    472 H         177.1863  144.3348  149.7952 H        31        0    0.0000
    473 H         177.7365  142.9977  148.7937 H        31        0    0.0000
    474 H         174.7192  145.5949  148.3473 H        31        0    0.0000
    475 H         174.9551  144.2417  149.4480 H        31        0    0.0000
    476 H         173.9881  142.6766  148.0141 H        31        0    0.0000
    477 H         172.1630  143.7622  146.4983 H        31        0    0.0000
    478 H         172.0493  144.0236  148.2342 H        31        0    0.0000
    479 C         172.6716  145.7841  147.1267 C.3      32        0    0.0000
    480 C         171.2786  146.3986  146.9280 C.3      32        0    0.0000
    481 H         173.1153  146.2302  148.0260 H        32        0    0.0000
    482 H         173.3390  146.0307  146.2926 H        32        0    0.0000
    483 H         170.4872  145.6805  147.1731 H        32        0    0.0000
    484 H         171.1720  147.2349  147.6307 H        32        0    0.0000
    485 C         168.5296  148.7525  143.4817 C.3      33        0    0.0000
    486 C         168.9588  147.4116  144.0751 C.3      33        0    0.0000
    487 C         169.7014  147.7265  145.3852 C.3      33        0    0.0000
    488 C         171.0379  146.9804  145.4920 C.3      33        0    0.0000
    489 C         169.8358  149.2570  145.4004 C.3      33        0    0.0000
    490 C         168.6149  149.7676  144.6245 C.3      33        0    0.0000
    491 C         167.3156  149.8087  145.4493 C.3      33        0    0.0000
    492 H         169.2393  149.0353  142.6937 H        33        0    0.0000
    493 H         167.5385  148.7001  143.0203 H        33        0    0.0000
    494 H         169.5744  146.8564  143.3588 H        33        0    0.0000
    495 H         168.0792  146.7936  144.2905 H        33        0    0.0000
    496 H         169.0544  147.4233  146.2206 H        33        0    0.0000
    497 H         171.8670  147.6433  145.2186 H        33        0    0.0000
    498 H         171.0472  146.1500  144.7757 H        33        0    0.0000
    499 H         169.8946  149.6538  146.4186 H        33        0    0.0000
    500 H         170.7493  149.5643  144.8747 H        33        0    0.0000
    501 H         168.8164  150.7666  144.2172 H        33        0    0.0000
    502 H         167.5274  149.8839  146.5213 H        33        0    0.0000
    503 H         166.7660  148.8707  145.3038 H        33        0    0.0000
    504 C         165.2450  152.0332  141.5816 C.3      34        0    0.0000
    505 C         164.9809  151.4353  142.9551 C.3      34        0    0.0000
    506 C         166.3899  151.2062  143.5058 C.3      34        0    0.0000
    507 C         166.3881  150.9805  145.0198 C.3      34        0    0.0000
    508 C         167.1711  152.4488  143.0409 C.3      34        0    0.0000
    509 C         166.3961  153.0154  141.8335 C.3      34        0    0.0000
    510 C         167.2488  153.3544  140.6043 C.3      34        0    0.0000
    511 H         164.3603  152.5352  141.1776 H        34        0    0.0000
    512 H         165.5264  151.2371  140.8838 H        34        0    0.0000
    513 H         164.4232  152.1457  143.5776 H        34        0    0.0000
    514 H         164.4044  150.5072  142.8939 H        34        0    0.0000
    515 H         166.8165  150.3253  143.0043 H        34        0    0.0000
    516 H         166.6980  151.8953  145.5389 H        34        0    0.0000
    517 H         165.3665  150.7609  145.3522 H        34        0    0.0000
    518 H         167.2103  153.2108  143.8292 H        34        0    0.0000
    519 H         168.2072  152.1869  142.8018 H        34        0    0.0000
    520 H         165.9439  153.9613  142.1670 H        34        0    0.0000
    521 H         167.5280  152.4247  140.0945 H        34        0    0.0000
    522 H         168.1828  153.8225  140.9374 H        34        0    0.0000
    523 C         163.3584  155.6866  141.0265 C.3      35        0    0.0000
    524 C         164.6878  154.9450  141.1889 C.3      35        0    0.0000
    525 C         165.0426  154.3885  139.8038 C.3      35        0    0.0000
    526 C         166.5550  154.2999  139.5820 C.3      35        0    0.0000
    527 C         164.3118  155.3385  138.8492 C.3      35        0    0.0000
    528 C         162.9652  155.5472  139.5499 C.3      35        0    0.0000
    529 C         162.1629  156.7497  139.0453 C.3      35        0    0.0000
    530 H         162.5848  155.2692  141.6800 H        35        0    0.0000
    531 H         163.4899  156.7379  141.3092 H        35        0    0.0000
    532 H         164.6093  154.1399  141.9274 H        35        0    0.0000
    533 H         165.4533  155.6427  141.5492 H        35        0    0.0000
    534 H         164.5964  153.3875  139.7122 H        35        0    0.0000
    535 H         166.9942  155.3001  139.6785 H        35        0    0.0000
    536 H         166.7706  153.9570  138.5633 H        35        0    0.0000
    537 H         164.1908  154.9032  137.8521 H        35        0    0.0000
    538 H         164.8533  156.2874  138.7482 H        35        0    0.0000
    539 H         162.3668  154.6310  139.4398 H        35        0    0.0000
    540 H         162.2661  157.5934  139.7376 H        35        0    0.0000
    541 H         161.0978  156.4897  139.0205 H        35        0    0.0000
    542 C         160.9946  154.8615  135.0834 C.3      36        0    0.0000
    543 C         161.5164  155.1299  136.4880 C.3      36        0    0.0000
    544 C         161.7109  156.6497  136.4957 C.3      36        0    0.0000
    545 C         162.5961  157.1936  137.6211 C.3      36        0    0.0000
    546 C         162.1590  157.0086  135.0654 C.3      36        0    0.0000
    547 C         161.8834  155.7551  134.2121 C.3      36        0    0.0000
    548 C         161.3616  156.0213  132.7968 C.3      36        0    0.0000
    549 H         161.0802  153.8051  134.8104 H        36        0    0.0000
    550 H         159.9381  155.1445  135.0208 H        36        0    0.0000
    551 H         160.8095  154.8019  137.2564 H        36        0    0.0000
    552 H         162.4590  154.5930  136.6415 H        36        0    0.0000
    553 H         160.7157  157.0978  136.6367 H        36        0    0.0000
    554 H         163.6302  156.8709  137.4510 H        36        0    0.0000
    555 H         162.5970  158.2892  137.5788 H        36        0    0.0000
    556 H         163.2219  157.2665  135.0043 H        36        0    0.0000
    557 H         161.6073  157.8892  134.7190 H        36        0    0.0000
    558 H         162.8454  155.2332  134.0973 H        36        0    0.0000
    559 H         160.6001  156.8091  132.8383 H        36        0    0.0000
    560 H         162.1812  156.4077  132.1794 H        36        0    0.0000
    561 C         162.9541  154.7821  129.1069 C.3      37        0    0.0000
    562 C         162.2060  155.6263  130.1416 C.3      37        0    0.0000
    563 C         160.9801  154.8038  130.5774 C.3      37        0    0.0000
    564 C         160.7514  154.7718  132.0936 C.3      37        0    0.0000
    565 C         161.2296  153.4087  129.9954 C.3      37        0    0.0000
    566 C         161.9904  153.6657  128.6902 C.3      37        0    0.0000
    567 C         161.0554  154.0726  127.5356 C.3      37        0    0.0000
    568 H         163.3153  155.3885  128.2708 H        37        0    0.0000
    569 H         163.8356  154.3364  129.5853 H        37        0    0.0000
    570 H         162.8716  155.8729  130.9761 H        37        0    0.0000
    571 H         161.8795  156.5737  129.6970 H        37        0    0.0000
    572 H         160.0906  155.2242  130.0868 H        37        0    0.0000
    573 H         159.6744  154.7487  132.2980 H        37        0    0.0000
    574 H         161.1764  153.8585  132.5257 H        37        0    0.0000
    575 H         160.2974  152.8555  129.8424 H        37        0    0.0000
    576 H         161.8579  152.8182  130.6748 H        37        0    0.0000
    577 H         162.5499  152.7650  128.4070 H        37        0    0.0000
    578 H         160.9587  155.1620  127.4698 H        37        0    0.0000
    579 H         160.0511  153.6744  127.7230 H        37        0    0.0000
    580 C         165.2019  152.5615  126.4865 C.3      38        0    0.0000
    581 C         163.8831  152.9449  127.1403 C.3      38        0    0.0000
    582 C         163.0722  153.5466  125.9856 C.3      38        0    0.0000
    583 C         161.5495  153.5162  126.1688 C.3      38        0    0.0000
    584 C         163.5987  152.8643  124.7062 C.3      38        0    0.0000
    585 C         164.7600  151.9571  125.1522 C.3      38        0    0.0000
    586 C         165.9151  151.8580  124.1528 C.3      38        0    0.0000
    587 H         165.8221  153.4528  126.3314 H        38        0    0.0000
    588 H         165.7695  151.8509  127.0951 H        38        0    0.0000
    589 H         163.4075  152.0506  127.5571 H        38        0    0.0000
    590 H         164.0246  153.6601  127.9567 H        38        0    0.0000
    591 H         163.3541  154.6077  125.9138 H        38        0    0.0000
    592 H         161.0828  154.0969  125.3642 H        38        0    0.0000
    593 H         161.1958  152.4844  126.0572 H        38        0    0.0000
    594 H         163.9439  153.6357  124.0066 H        38        0    0.0000
    595 H         162.8325  152.2824  124.1833 H        38        0    0.0000
    596 H         164.3558  150.9529  125.3462 H        38        0    0.0000
    597 H         166.6581  152.6386  124.3547 H        38        0    0.0000
    598 H         166.4257  150.8964  124.2834 H        38        0    0.0000
    599 C         162.4754  149.6352  122.2378 C.3      39        0    0.0000
    600 C         163.7378  150.0447  122.9836 C.3      39        0    0.0000
    601 C         164.0230  151.4445  122.4298 C.3      39        0    0.0000
    602 C         165.4389  151.9737  122.6776 C.3      39        0    0.0000
    603 C         163.5809  151.3949  120.9542 C.3      39        0    0.0000
    604 C         162.7588  150.0998  120.8055 C.3      39        0    0.0000
    605 C         161.5337  150.1965  119.8912 C.3      39        0    0.0000
    606 H         162.2997  148.5564  122.2931 H        39        0    0.0000
    607 H         161.6077  150.1440  122.6721 H        39        0    0.0000
    608 H         163.5874  150.0540  124.0676 H        39        0    0.0000
    609 H         164.5457  149.3398  122.7583 H        39        0    0.0000
    610 H         163.3370  152.1360  122.9420 H        39        0    0.0000
    611 H         166.1421  151.4286  122.0367 H        39        0    0.0000
    612 H         165.4866  153.0261  122.3736 H        39        0    0.0000
    613 H         164.4256  151.3743  120.2571 H        39        0    0.0000
    614 H         163.0045  152.2950  120.7143 H        39        0    0.0000
    615 H         163.4274  149.3513  120.3539 H        39        0    0.0000
    616 H         161.0629  149.2090  119.8178 H        39        0    0.0000
    617 H         160.7953  150.8642  120.3508 H        39        0    0.0000
    618 C         165.1090  149.1027  117.7159 C.3      40        0    0.0000
    619 C         164.1487  149.5984  118.7999 C.3      40        0    0.0000
    620 C         163.3554  150.7654  118.1850 C.3      40        0    0.0000
    621 C         161.8465  150.7101  118.4537 C.3      40        0    0.0000
    622 C         163.6844  150.7050  116.6899 C.3      40        0    0.0000
    623 C         165.1254  150.1867  116.6325 C.3      40        0    0.0000
    624 C         166.1599  151.2960  116.9016 C.3      40        0    0.0000
    625 H         166.0977  148.8702  118.1228 H        40        0    0.0000
    626 H         164.7103  148.1735  117.2889 H        40        0    0.0000
    627 H         163.5061  148.7770  119.1355 H        40        0    0.0000
    628 H         164.7090  149.9493  119.6744 H        40        0    0.0000
    629 H         163.7595  151.7061  118.5856 H        40        0    0.0000
    630 H         161.4209  151.7146  118.3428 H        40        0    0.0000
    631 H         161.3491  150.0711  117.7150 H        40        0    0.0000
    632 H         163.5629  151.6783  116.2036 H        40        0    0.0000
    633 H         163.0197  149.9949  116.1809 H        40        0    0.0000
    634 H         165.3168  149.7397  115.6487 H        40        0    0.0000
    635 H         166.9694  150.9345  117.5453 H        40        0    0.0000
    636 H         165.6758  152.1238  117.4332 H        40        0    0.0000
    637 C         165.6602  152.8870  112.1909 C.3      41        0    0.0000
    638 C         165.7942  153.2838  113.6631 C.3      41        0    0.0000
    639 C         165.7032  151.9823  114.4798 C.3      41        0    0.0000
    640 C         166.7633  151.8557  115.5808 C.3      41        0    0.0000
    641 C         165.8114  150.8672  113.4347 C.3      41        0    0.0000
    642 C         165.1414  151.4449  112.1834 C.3      41        0    0.0000
    643 C         163.6048  151.3539  112.2447 C.3      41        0    0.0000
    644 H         165.0276  153.5867  111.6364 H        41        0    0.0000
    645 H         166.6540  152.9141  111.7259 H        41        0    0.0000
    646 H         166.7356  153.8212  113.8223 H        41        0    0.0000
    647 H         164.9819  153.9613  113.9511 H        41        0    0.0000
    648 H         164.7031  151.9289  114.9334 H        41        0    0.0000
    649 H         167.5561  151.1766  115.2453 H        41        0    0.0000
    650 H         167.2357  152.8263  115.7709 H        41        0    0.0000
    651 H         165.3443  149.9380  113.7766 H        41        0    0.0000
    652 H         166.8649  150.6483  113.2175 H        41        0    0.0000
    653 H         165.5035  150.9140  111.2938 H        41        0    0.0000
    654 H         163.1380  152.2445  111.8095 H        41        0    0.0000
    655 H         163.2846  151.3061  113.2923 H        41        0    0.0000
    656 C         166.3791  148.6972  112.2967 C.3      42        0    0.0000
    657 C         165.0077  149.0857  112.8470 C.3      42        0    0.0000
    658 C         163.9988  148.8773  111.7044 C.3      42        0    0.0000
    659 C         163.0719  150.0857  111.5171 C.3      42        0    0.0000
    660 C         164.8616  148.5537  110.4749 C.3      42        0    0.0000
    661 C         166.1104  147.8651  111.0401 C.3      42        0    0.0000
    662 C         165.9124  146.3752  111.3740 C.3      42        0    0.0000
    663 H         166.9205  149.6099  112.0165 H        42        0    0.0000
    664 H         166.9887  148.1756  113.0412 H        42        0    0.0000
    665 H         165.0234  150.1158  113.2195 H        42        0    0.0000
    666 H         164.7427  148.4413  113.6935 H        42        0    0.0000
    667 H         163.3911  147.9945  111.9482 H        42        0    0.0000
    668 H         162.0630  149.8511  111.8758 H        42        0    0.0000
    669 H         162.9830  150.3116  110.4477 H        42        0    0.0000
    670 H         164.3242  147.9386  109.7467 H        42        0    0.0000
    671 H         165.1615  149.4790  109.9658 H        42        0    0.0000
    672 H         166.9496  147.9704  110.3407 H        42        0    0.0000
    673 H         164.9155  146.1898  111.7880 H        42        0    0.0000
    674 H         166.6323  146.0799  112.1470 H        42        0    0.0000
    675 C         166.1376  145.4640  110.1343 C.3      43        0    0.0000
    676 C         164.8815  145.2567  109.2760 C.3      43        0    0.0000
    677 H         166.8970  145.9561  109.5132 H        43        0    0.0000
    678 H         166.5657  144.5063  110.4527 H        43        0    0.0000
    679 H         164.8329  144.2355  108.8804 H        43        0    0.0000
    680 H         164.0032  145.3854  109.9214 H        43        0    0.0000
    681 C         168.2646  146.2980  106.6925 C.3      44        0    0.0000
    682 C         167.2402  145.7732  107.6887 C.3      44        0    0.0000
    683 C         165.9157  146.2996  107.1262 C.3      44        0    0.0000
    684 C         164.7352  146.2858  108.1020 C.3      44        0    0.0000
    685 C         166.2530  147.6717  106.5107 C.3      44        0    0.0000
    686 C         167.7914  147.7332  106.4398 C.3      44        0    0.0000
    687 C         168.3685  148.4054  105.1902 C.3      44        0    0.0000
    688 H         169.2813  146.2653  107.0961 H        44        0    0.0000
    689 H         168.2404  145.6897  105.7817 H        44        0    0.0000
    690 H         167.2546  144.6808  107.7527 H        44        0    0.0000
    691 H         167.4535  146.1753  108.6853 H        44        0    0.0000
    692 H         165.6386  145.6383  106.2912 H        44        0    0.0000
    693 H         164.6098  147.2890  108.5265 H        44        0    0.0000
    694 H         163.8156  146.0606  107.5490 H        44        0    0.0000
    695 H         165.8804  148.5100  107.1092 H        44        0    0.0000
    696 H         165.7777  147.7588  105.5277 H        44        0    0.0000
    697 H         168.1235  148.3346  107.2995 H        44        0    0.0000
    698 H         168.0732  149.4613  105.1830 H        44        0    0.0000
    699 H         169.4634  148.3848  105.2454 H        44        0    0.0000
    700 C         170.8963  146.5910  101.8382 C.3      45        0    0.0000
    701 C         170.2782  147.0809  103.1504 C.3      45        0    0.0000
    702 C         169.0038  147.8446  102.7674 C.3      45        0    0.0000
    703 C         167.9227  147.7518  103.8477 C.3      45        0    0.0000
    704 C         168.6165  147.2230  101.4214 C.3      45        0    0.0000
    705 C         169.9697  147.0793  100.7170 C.3      45        0    0.0000
    706 C         169.9648  146.1337   99.5127 C.3      45        0    0.0000
    707 H         171.9120  146.9787  101.7050 H        45        0    0.0000
    708 H         170.9657  145.4967  101.8535 H        45        0    0.0000
    709 H         170.9708  147.7247  103.7032 H        45        0    0.0000
    710 H         170.0529  146.2202  103.7914 H        45        0    0.0000
    711 H         169.2723  148.8984  102.6028 H        45        0    0.0000
    712 H         167.6874  146.6971  104.0346 H        45        0    0.0000
    713 H         166.9969  148.2255  103.5010 H        45        0    0.0000
    714 H         167.9284  147.8619  100.8588 H        45        0    0.0000
    715 H         168.1413  146.2442  101.5629 H        45        0    0.0000
    716 H         170.3090  148.0770  100.4022 H        45        0    0.0000
    717 H         169.7299  145.1117   99.8326 H        45        0    0.0000
    718 H         170.9684  146.1040   99.0718 H        45        0    0.0000
    719 C         168.3126  144.6645   95.2111 C.3      46        0    0.0000
    720 C         168.3294  144.7117   96.7313 C.3      46        0    0.0000
    721 C         169.1944  145.9397   97.0423 C.3      46        0    0.0000
    722 C         168.9568  146.5771   98.4172 C.3      46        0    0.0000
    723 C         169.0247  146.8858   95.8359 C.3      46        0    0.0000
    724 C         168.1395  146.1348   94.8245 C.3      46        0    0.0000
    725 C         168.4873  146.3902   93.3558 C.3      46        0    0.0000
    726 H         169.2615  144.2649   94.8330 H        46        0    0.0000
    727 H         167.5006  144.0379   94.8296 H        46        0    0.0000
    728 H         167.3058  144.8219   97.1054 H        46        0    0.0000
    729 H         168.7471  143.7972   97.1638 H        46        0    0.0000
    730 H         170.2424  145.6049   97.0333 H        46        0    0.0000
    731 H         169.0053  147.6680   98.3167 H        46        0    0.0000
    732 H         167.9408  146.3376   98.7524 H        46        0    0.0000
    733 H         170.0129  147.1049   95.4124 H        46        0    0.0000
    734 H         168.5747  147.8475   96.1041 H        46        0    0.0000
    735 H         167.0928  146.4181   95.0080 H        46        0    0.0000
    736 H         167.5817  146.3452   92.7393 H        46        0    0.0000
    737 H         168.8898  147.4047   93.2500 H        46        0    0.0000
    738 C         167.9091  142.2119   91.4717 C.3      47        0    0.0000
    739 C         167.9661  143.3396   92.4926 C.3      47        0    0.0000
    740 C         168.9504  144.3268   91.8567 C.3      47        0    0.0000
    741 C         169.5320  145.3789   92.8058 C.3      47        0    0.0000
    742 C         169.9842  143.4518   91.1209 C.3      47        0    0.0000
    743 C         169.3785  142.0354   91.0750 C.3      47        0    0.0000
    744 C         169.6205  141.2554   89.7792 C.3      47        0    0.0000
    745 H         167.4850  141.2968   91.8967 H        47        0    0.0000
    746 H         167.2862  142.5129   90.6222 H        47        0    0.0000
    747 H         166.9827  143.7897   92.6600 H        47        0    0.0000
    748 H         168.3310  142.9534   93.4507 H        47        0    0.0000
    749 H         168.3946  144.8774   91.0827 H        47        0    0.0000
    750 H         170.0109  144.8721   93.6520 H        47        0    0.0000
    751 H         170.3201  145.9352   92.2848 H        47        0    0.0000
    752 H         170.9535  143.4191   91.6300 H        47        0    0.0000
    753 H         170.1723  143.8669   90.1249 H        47        0    0.0000
    754 H         169.8593  141.4599   91.8805 H        47        0    0.0000
    755 H         169.8583  140.2141   90.0271 H        47        0    0.0000
    756 H         168.6934  141.2359   89.1941 H        47        0    0.0000
    757 C         169.7471  141.8943   85.2394 C.3      48        0    0.0000
    758 C         169.3604  141.8328   86.7092 C.3      48        0    0.0000
    759 C         170.6687  141.4417   87.4081 C.3      48        0    0.0000
    760 C         170.7623  141.8312   88.8888 C.3      48        0    0.0000
    761 C         171.7996  141.9819   86.5088 C.3      48        0    0.0000
    762 C         171.1105  142.5879   85.2725 C.3      48        0    0.0000
    763 C         171.8793  142.4124   83.9606 C.3      48        0    0.0000
    764 H         169.8280  140.8817   84.8254 H        48        0    0.0000
    765 H         169.0145  142.4496   84.6459 H        48        0    0.0000
    766 H         168.9961  142.8137   87.0332 H        48        0    0.0000
    767 H         168.5652  141.1033   86.8922 H        48        0    0.0000
    768 H         170.7364  140.3441   87.3719 H        48        0    0.0000
    769 H         171.7246  141.4879   89.2868 H        48        0    0.0000
    770 H         170.7600  142.9245   88.9724 H        48        0    0.0000
    771 H         172.4596  141.1516   86.2280 H        48        0    0.0000
    772 H         172.4254  142.7293   87.0078 H        48        0    0.0000
    773 H         170.9473  143.6590   85.4613 H        48        0    0.0000
    774 H         171.3714  142.9482   83.1499 H        48        0    0.0000
    775 H         172.8740  142.8628   84.0606 H        48        0    0.0000
    776 C         171.2116  139.1716   80.9106 C.3      49        0    0.0000
    777 C         172.5388  139.3110   81.6611 C.3      49        0    0.0000
    778 C         172.6190  140.7644   82.1408 C.3      49        0    0.0000
    779 C         172.0455  140.9191   83.5620 C.3      49        0    0.0000
    780 C         171.8304  141.5054   81.0535 C.3      49        0    0.0000
    781 C         170.6392  140.5907   80.7580 C.3      49        0    0.0000
    782 C         170.0089  140.8775   79.3905 C.3      49        0    0.0000
    783 H         171.3824  138.6831   79.9445 H        49        0    0.0000
    784 H         170.5145  138.5411   81.4742 H        49        0    0.0000
    785 H         173.3621  139.1143   80.9627 H        49        0    0.0000
    786 H         172.6275  138.5827   82.4736 H        49        0    0.0000
    787 H         173.6643  141.0990   82.1403 H        49        0    0.0000
    788 H         172.7272  140.4456   84.2790 H        49        0    0.0000
    789 H         171.0832  140.4055   83.6602 H        49        0    0.0000
    790 H         172.4581  141.6133   80.1593 H        49        0    0.0000
    791 H         171.5101  142.5083   81.3515 H        49        0    0.0000
    792 H         169.8819  140.7442   81.5397 H        49        0    0.0000
    793 H         169.4602  141.8262   79.4150 H        49        0    0.0000
    794 H         169.2790  140.0941   79.1545 H        49        0    0.0000
    795 C         171.0762  140.9229   78.2596 C.3      50        0    0.0000
    796 C         170.7275  140.0610   77.0377 C.3      50        0    0.0000
    797 H         171.1451  141.9678   77.9307 H        50        0    0.0000
    798 H         172.0585  140.6575   78.6678 H        50        0    0.0000
    799 H         170.3126  139.0919   77.3385 H        50        0    0.0000
    800 H         169.9417  140.5763   76.4706 H        50        0    0.0000
    801 C         175.1101  141.5271   77.2205 C.3      51        0    0.0000
    802 C         173.7535  140.9176   77.5394 C.3      51        0    0.0000
    803 C         173.0499  140.8760   76.1770 C.3      51        0    0.0000
    804 C         171.9262  139.8394   76.0514 C.3      51        0    0.0000
    805 C         174.1762  140.7615   75.1292 C.3      51        0    0.0000
    806 C         175.4991  140.8327   75.9138 C.3      51        0    0.0000
    807 C         176.6346  141.5602   75.1895 C.3      51        0    0.0000
    808 H         175.0159  142.6109   77.0801 H        51        0    0.0000
    809 H         175.8378  141.3468   78.0176 H        51        0    0.0000
    810 H         173.8923  139.9172   77.9635 H        51        0    0.0000
    811 H         173.1980  141.5159   78.2684 H        51        0    0.0000
    812 H         172.5813  141.8601   76.0274 H        51        0    0.0000
    813 H         171.5425  139.8535   75.0243 H        51        0    0.0000
    814 H         172.3418  138.8386   76.2177 H        51        0    0.0000
    815 H         174.0900  141.5943   74.4202 H        51        0    0.0000
    816 H         174.1244  139.8387   74.5419 H        51        0    0.0000
    817 H         175.8136  139.8057   76.1500 H        51        0    0.0000
    818 H         176.6209  142.6274   75.4405 H        51        0    0.0000
    819 H         177.5971  141.1673   75.5382 H        51        0    0.0000
    820 C         173.6774  141.8488   72.1378 C.3      52        0    0.0000
    821 C         174.0405  141.1455   73.4484 C.3      52        0    0.0000
    822 C         175.3996  140.4743   73.2222 C.3      52        0    0.0000
    823 C         176.5586  141.3964   73.6455 C.3      52        0    0.0000
    824 C         175.3555  140.1573   71.7220 C.3      52        0    0.0000
    825 C         174.7079  141.3927   71.0915 C.3      52        0    0.0000
    826 C         174.1197  141.1000   69.7065 C.3      52        0    0.0000
    827 H         172.6505  141.5932   71.8530 H        52        0    0.0000
    828 H         173.7188  142.9371   72.2601 H        52        0    0.0000
    829 H         173.2867  140.3757   73.6571 H        52        0    0.0000
    830 H         174.0361  141.8362   74.2978 H        52        0    0.0000
    831 H         175.4556  139.5435   73.8011 H        52        0    0.0000
    832 H         176.4106  142.3882   73.2014 H        52        0    0.0000
    833 H         177.5184  141.0261   73.2698 H        52        0    0.0000
    834 H         174.7275  139.2721   71.5561 H        52        0    0.0000
    835 H         176.3383  139.9469   71.2898 H        52        0    0.0000
    836 H         175.4738  142.1751   70.9962 H        52        0    0.0000
    837 H         174.6336  141.6929   68.9409 H        52        0    0.0000
    838 H         173.0656  141.4012   69.6876 H        52        0    0.0000
    839 C         174.2141  139.5898   69.3452 C.3      53        0    0.0000
    840 C         174.3772  139.3167   67.8431 C.3      53        0    0.0000
    841 H         173.2760  139.1257   69.6758 H        53        0    0.0000
    842 H         175.0173  139.1207   69.9254 H        53        0    0.0000
    843 H         173.4126  139.5077   67.3557 H        53        0    0.0000
    844 H         175.0997  140.0048   67.3887 H        53        0    0.0000
    845 C         174.5770  136.6112   71.0666 C.3      54        0    0.0000
    846 C         175.2086  137.4646   69.9773 C.3      54        0    0.0000
    847 C         174.5955  136.8945   68.6966 C.3      54        0    0.0000
    848 C         174.7708  137.8373   67.5036 C.3      54        0    0.0000
    849 C         173.1326  136.6126   69.0852 C.3      54        0    0.0000
    850 C         173.1138  136.4886   70.6227 C.3      54        0    0.0000
    851 C         172.3611  135.2719   71.1757 C.3      54        0    0.0000
    852 H         174.6673  137.0758   72.0534 H        54        0    0.0000
    853 H         175.0793  135.6386   71.1071 H        54        0    0.0000
    854 H         174.9340  138.5177   70.1130 H        54        0    0.0000
    855 H         176.3005  137.3918   69.9815 H        54        0    0.0000
    856 H         175.0840  135.9334   68.4792 H        54        0    0.0000
    857 H         175.8085  137.8117   67.1505 H        54        0    0.0000
    858 H         174.1468  137.4892   66.6719 H        54        0    0.0000
    859 H         172.4762  137.4392   68.7858 H        54        0    0.0000
    860 H         172.7638  135.7153   68.5773 H        54        0    0.0000
    861 H         172.5875  137.3770   71.0025 H        54        0    0.0000
    862 H         173.0103  134.3905   71.1137 H        54        0    0.0000
    863 H         171.4941  135.0689   70.5358 H        54        0    0.0000
    864 C         172.7601  138.7939   74.1471 C.3      55        0    0.0000
    865 C         172.4735  137.9372   72.9234 C.3      55        0    0.0000
    866 C         172.6180  136.5030   73.4479 C.3      55        0    0.0000
    867 C         171.8699  135.4326   72.6431 C.3      55        0    0.0000
    868 C         172.2653  136.5701   74.9481 C.3      55        0    0.0000
    869 C         172.0172  138.0566   75.2632 C.3      55        0    0.0000
    870 C         172.4762  138.5015   76.6540 C.3      55        0    0.0000
    871 H         173.8387  138.8263   74.3438 H        55        0    0.0000
    872 H         172.4038  139.8208   74.0209 H        55        0    0.0000
    873 H         171.4610  138.1444   72.5605 H        55        0    0.0000
    874 H         173.1712  138.1459   72.1062 H        55        0    0.0000
    875 H         173.6859  136.2452   73.3880 H        55        0    0.0000
    876 H         171.9707  134.4679   73.1545 H        55        0    0.0000
    877 H         170.8002  135.6733   72.6346 H        55        0    0.0000
    878 H         173.1076  136.1762   75.5306 H        55        0    0.0000
    879 H         171.3893  135.9677   75.2108 H        55        0    0.0000
    880 H         170.9415  138.2561   75.1508 H        55        0    0.0000
    881 H         173.5544  138.7005   76.6507 H        55        0    0.0000
    882 H         171.9828  139.4458   76.9134 H        55        0    0.0000
    883 C         172.1526  137.4510   77.7532 C.3      56        0    0.0000
    884 C         173.0722  137.5287   78.9803 C.3      56        0    0.0000
    885 H         172.2805  136.4624   77.2940 H        56        0    0.0000
    886 H         171.0974  137.5293   78.0398 H        56        0    0.0000
    887 H         173.9657  136.9253   78.7750 H        56        0    0.0000
    888 H         173.4195  138.5539   79.1542 H        56        0    0.0000
    889 C         169.9114  134.4474   81.3491 C.3      57        0    0.0000
    890 C         171.3749  134.7084   80.9849 C.3      57        0    0.0000
    891 C         171.3784  135.8849   79.9924 C.3      57        0    0.0000
    892 C         172.4323  136.9578   80.2931 C.3      57        0    0.0000
    893 C         169.9506  136.4373   80.0498 C.3      57        0    0.0000
    894 C         169.0727  135.2102   80.3178 C.3      57        0    0.0000
    895 C         168.7963  134.3952   79.0401 C.3      57        0    0.0000
    896 H         169.6878  133.3774   81.3958 H        57        0    0.0000
    897 H         169.7168  134.8604   82.3473 H        57        0    0.0000
    898 H         171.9557  134.9141   81.8908 H        57        0    0.0000
    899 H         171.8144  133.8220   80.5127 H        57        0    0.0000
    900 H         171.5489  135.4841   78.9829 H        57        0    0.0000
    901 H         171.9631  137.7846   80.8396 H        57        0    0.0000
    902 H         173.2168  136.5525   80.9424 H        57        0    0.0000
    903 H         169.6769  136.9631   79.1293 H        57        0    0.0000
    904 H         169.8491  137.1481   80.8802 H        57        0    0.0000
    905 H         168.1205  135.5286   80.7610 H        57        0    0.0000
    906 H         169.6389  133.7373   78.8004 H        57        0    0.0000
    907 H         168.6745  135.0789   78.1916 H        57        0    0.0000
    908 C         167.4991  133.5449   79.1668 C.3      58        0    0.0000
    909 C         167.7390  132.1103   79.6587 C.3      58        0    0.0000
    910 H         166.8575  134.0527   79.8983 H        58        0    0.0000
    911 H         166.9566  133.5544   78.2142 H        58        0    0.0000
    912 H         167.9014  131.4230   78.8202 H        58        0    0.0000
    913 H         168.6619  132.1040   80.2528 H        58        0    0.0000
    914 C         163.9440  130.2362   79.1778 C.3      59        0    0.0000
    915 C         164.7606  131.4859   78.8377 C.3      59        0    0.0000
    916 C         165.2155  132.0870   80.1721 C.3      59        0    0.0000
    917 C         166.6013  131.5554   80.5841 C.3      59        0    0.0000
    918 C         164.0740  131.6812   81.1131 C.3      59        0    0.0000
    919 C         163.7340  130.2466   80.7011 C.3      59        0    0.0000
    920 C         162.3298  129.8280   81.1514 C.3      59        0    0.0000
    921 H         162.9980  130.2506   78.6247 H        59        0    0.0000
    922 H         164.4822  129.3303   78.8764 H        59        0    0.0000
    923 H         164.1105  132.2029   78.3205 H        59        0    0.0000
    924 H         165.5907  131.2601   78.1605 H        59        0    0.0000
    925 H         165.2637  133.1805   80.0902 H        59        0    0.0000
    926 H         166.6031  130.4610   80.5127 H        59        0    0.0000
    927 H         166.8268  131.8006   81.6274 H        59        0    0.0000
    928 H         163.2122  132.3399   80.9438 H        59        0    0.0000
    929 H         164.3352  131.7497   82.1733 H        59        0    0.0000
    930 H         164.4714  129.5710   81.1568 H        59        0    0.0000
    931 H         162.2376  129.9122   82.2404 H        59        0    0.0000
    932 H         162.1657  128.7737   80.8989 H        59        0    0.0000
    933 C         160.1308  127.9598   78.0721 C.3      60        0    0.0000
    934 C         161.2433  128.7679   78.7224 C.3      60        0    0.0000
    935 C         160.5105  129.9832   79.3046 C.3      60        0    0.0000
    936 C         161.2242  130.6831   80.4681 C.3      60        0    0.0000
    937 C         159.0754  129.5018   79.6019 C.3      60        0    0.0000
    938 C         158.9983  128.0492   79.0970 C.3      60        0    0.0000
    939 C         157.6466  127.6499   78.4999 C.3      60        0    0.0000
    940 H         159.8383  128.4153   77.1182 H        60        0    0.0000
    941 H         160.4341  126.9262   77.8796 H        60        0    0.0000
    942 H         161.7271  128.1659   79.4992 H        60        0    0.0000
    943 H         162.0112  129.0612   77.9996 H        60        0    0.0000
    944 H         160.4309  130.7271   78.4979 H        60        0    0.0000
    945 H         161.6761  131.6123   80.1009 H        60        0    0.0000
    946 H         160.4822  130.9713   81.2222 H        60        0    0.0000
    947 H         158.3653  130.1456   79.0681 H        60        0    0.0000
    948 H         158.8155  129.5561   80.6643 H        60        0    0.0000
    949 H         159.2401  127.3811   79.9364 H        60        0    0.0000
    950 H         157.7181  126.6623   78.0291 H        60        0    0.0000
    951 H         156.9069  127.5621   79.3046 H        60        0    0.0000
    952 C         154.2327  126.4777   76.4574 C.3      61        0    0.0000
    953 C         155.6252  127.0566   76.1937 C.3      61        0    0.0000
    954 C         155.7043  128.3668   76.9881 C.3      61        0    0.0000
    955 C         157.1286  128.6786   77.4560 C.3      61        0    0.0000
    956 C         154.6938  128.1499   78.1193 C.3      61        0    0.0000
    957 C         153.5284  127.4623   77.4002 C.3      61        0    0.0000
    958 C         152.5281  126.7662   78.3272 C.3      61        0    0.0000
    959 H         153.6683  126.3529   75.5270 H        61        0    0.0000
    960 H         154.3303  125.4853   76.9137 H        61        0    0.0000
    961 H         155.7888  127.2345   75.1254 H        61        0    0.0000
    962 H         156.3869  126.3402   76.5242 H        61        0    0.0000
    963 H         155.3404  129.1806   76.3439 H        61        0    0.0000
    964 H         157.1502  129.6768   77.9096 H        61        0    0.0000
    965 H         157.8127  128.7057   76.5998 H        61        0    0.0000
    966 H         154.3890  129.0939   78.5821 H        61        0    0.0000
    967 H         155.1111  127.5016   78.9000 H        61        0    0.0000
    968 H         153.0051  128.2097   76.7862 H        61        0    0.0000
    969 H         152.5985  127.1782   79.3407 H        61        0    0.0000
    970 H         152.7824  125.7020   78.4003 H        61        0    0.0000
    971 C         151.0656  126.8908   77.8188 C.3      62        0    0.0000
    972 C         150.0068  126.7276   78.9186 C.3      62        0    0.0000
    973 H         150.9627  127.8975   77.3937 H        62        0    0.0000
    974 H         150.8989  126.1849   76.9967 H        62        0    0.0000
    975 H         150.1753  125.8151   79.5023 H        62        0    0.0000
    976 H         150.1077  127.5692   79.6159 H        62        0    0.0000
    977 C         147.4693  125.3687   75.1604 C.3      63        0    0.0000
    978 C         148.6544  125.7641   76.0400 C.3      63        0    0.0000
    979 C         148.2142  125.5448   77.4977 C.3      63        0    0.0000
    980 C         148.5306  126.7520   78.3904 C.3      63        0    0.0000
    981 C         146.7179  125.2077   77.4079 C.3      63        0    0.0000
    982 C         146.5491  124.5238   76.0452 C.3      63        0    0.0000
    983 C         146.9511  123.0377   76.0313 C.3      63        0    0.0000
    984 H         146.9380  126.2780   74.8512 H        63        0    0.0000
    985 H         147.7873  124.8543   74.2482 H        63        0    0.0000
    986 H         148.9535  126.7980   75.8357 H        63        0    0.0000
    987 H         149.5198  125.1287   75.8177 H        63        0    0.0000
    988 H         148.7491  124.6651   77.8826 H        63        0    0.0000
    989 H         147.8361  126.7916   79.2376 H        63        0    0.0000
    990 H         148.3831  127.6750   77.8168 H        63        0    0.0000
    991 H         146.3864  124.5854   78.2449 H        63        0    0.0000
    992 H         146.1186  126.1273   77.4246 H        63        0    0.0000
    993 H         145.5122  124.6211   75.6991 H        63        0    0.0000
    994 H         147.8396  122.8605   76.6468 H        63        0    0.0000
    995 H         147.2157  122.7450   75.0079 H        63        0    0.0000
    996 C         143.4811  124.9171   77.5236 C.3      64        0    0.0000
    997 C         144.8878  124.3750   77.2572 C.3      64        0    0.0000
    998 C         144.7982  122.8510   77.4113 C.3      64        0    0.0000
    999 C         145.7947  122.1154   76.5109 C.3      64        0    0.0000
   1000 C         143.3254  122.5562   77.1080 C.3      64        0    0.0000
   1001 C         142.6002  123.6982   77.8275 C.3      64        0    0.0000
   1002 C         141.1474  123.9067   77.3911 C.3      64        0    0.0000
   1003 H         143.4763  125.6237   78.3605 H        64        0    0.0000
   1004 H         143.1251  125.4589   76.6390 H        64        0    0.0000
   1005 H         145.6185  124.7980   77.9549 H        64        0    0.0000
   1006 H         145.2027  124.6582   76.2456 H        64        0    0.0000
   1007 H         144.9965  122.6008   78.4637 H        64        0    0.0000
   1008 H         145.2690  121.7283   75.6298 H        64        0    0.0000
   1009 H         146.2130  121.2485   77.0355 H        64        0    0.0000
   1010 H         143.0187  121.5753   77.4846 H        64        0    0.0000
   1011 H         143.1328  122.5871   76.0282 H        64        0    0.0000
   1012 H         142.6374  123.5101   78.9105 H        64        0    0.0000
   1013 H         141.0505  124.8408   76.8254 H        64        0    0.0000
   1014 H         140.5134  124.0083   78.2800 H        64        0    0.0000
   1015 C         140.6123  122.7261   76.5351 C.3      65        0    0.0000
   1016 C         139.3569  123.0659   75.7190 C.3      65        0    0.0000
   1017 H         140.3562  121.9190   77.2335 H        65        0    0.0000
   1018 H         141.4137  122.3423   75.8930 H        65        0    0.0000
   1019 H         138.5189  123.1858   76.4175 H        65        0    0.0000
   1020 H         139.4682  124.0229   75.1958 H        65        0    0.0000
   1021 C         137.0869  123.1772   71.7257 C.3      66        0    0.0000
   1022 C         137.7575  123.5466   73.0511 C.3      66        0    0.0000
   1023 C         137.6433  122.3108   73.9616 C.3      66        0    0.0000
   1024 C         138.9394  121.9511   74.6984 C.3      66        0    0.0000
   1025 C         137.1728  121.1908   73.0281 C.3      66        0    0.0000
   1026 C         136.2892  121.8964   71.9938 C.3      66        0    0.0000
   1027 C         134.8680  122.1678   72.5227 C.3      66        0    0.0000
   1028 H         136.4823  123.9997   71.3319 H        66        0    0.0000
   1029 H         137.8663  122.9664   70.9822 H        66        0    0.0000
   1030 H         138.7951  123.8505   72.8742 H        66        0    0.0000
   1031 H         137.2450  124.3982   73.5136 H        66        0    0.0000
   1032 H         136.8489  122.4974   74.6983 H        66        0    0.0000
   1033 H         138.7966  121.0126   75.2473 H        66        0    0.0000
   1034 H         139.7519  121.7802   73.9828 H        66        0    0.0000
   1035 H         136.6442  120.4001   73.5703 H        66        0    0.0000
   1036 H         138.0308  120.7294   72.5223 H        66        0    0.0000
   1037 H         136.2297  121.2865   71.0834 H        66        0    0.0000
   1038 H         134.2964  122.7863   71.8219 H        66        0    0.0000
   1039 H         134.9306  122.7274   73.4636 H        66        0    0.0000
   1040 C         135.2586  118.1774   70.5635 C.3      67        0    0.0000
   1041 C         135.5346  119.5737   71.1190 C.3      67        0    0.0000
   1042 C         134.9546  119.6041   72.5437 C.3      67        0    0.0000
   1043 C         134.0912  120.8472   72.7956 C.3      67        0    0.0000
   1044 C         134.1958  118.2756   72.6854 C.3      67        0    0.0000
   1045 C         134.9448  117.2948   71.7743 C.3      67        0    0.0000
   1046 C         136.2234  116.7057   72.3977 C.3      67        0    0.0000
   1047 H         134.3770  118.2228   69.9114 H        67        0    0.0000
   1048 H         136.0900  117.8039   69.9574 H        67        0    0.0000
   1049 H         135.0999  120.3377   70.4652 H        67        0    0.0000
   1050 H         136.6145  119.7595   71.1577 H        67        0    0.0000
   1051 H         135.7965  119.6038   73.2504 H        67        0    0.0000
   1052 H         133.7141  120.8468   73.8248 H        67        0    0.0000
   1053 H         133.2146  120.8186   72.1373 H        67        0    0.0000
   1054 H         134.1443  117.9414   73.7262 H        67        0    0.0000
   1055 H         133.1650  118.3854   72.3241 H        67        0    0.0000
   1056 H         134.2794  116.4759   71.4722 H        67        0    0.0000
   1057 H         137.0859  117.3588   72.2272 H        67        0    0.0000
   1058 H         136.4539  115.7495   71.9124 H        67        0    0.0000
   1059 C         136.0629  116.4444   73.9221 C.3      68        0    0.0000
   1060 C         135.7485  114.9836   74.2750 C.3      68        0    0.0000
   1061 H         137.0189  116.7099   74.3913 H        68        0    0.0000
   1062 H         135.3105  117.1257   74.3365 H        68        0    0.0000
   1063 H         136.3149  114.2897   73.6428 H        68        0    0.0000
   1064 H         136.0750  114.8050   75.3075 H        68        0    0.0000
   1065 C         133.6818  117.8660   74.1898 C.3      69        0    0.0000
   1066 C         134.1089  116.9144   75.3107 C.3      69        0    0.0000
   1067 C         133.3741  115.5921   75.0649 C.3      69        0    0.0000
   1068 C         134.2226  114.6278   74.2148 C.3      69        0    0.0000
   1069 C         132.0805  116.0643   74.3891 C.3      69        0    0.0000
   1070 C         132.5325  117.1748   73.4374 C.3      69        0    0.0000
   1071 C         131.3821  118.1069   73.0407 C.3      69        0    0.0000
   1072 H         133.3826  118.8299   74.6168 H        69        0    0.0000
   1073 H         134.5182  118.0587   73.5083 H        69        0    0.0000
   1074 H         133.7873  117.3341   76.2723 H        69        0    0.0000
   1075 H         135.1967  116.8014   75.3587 H        69        0    0.0000
   1076 H         133.1426  115.1114   76.0241 H        69        0    0.0000
   1077 H         133.8967  114.6873   73.1692 H        69        0    0.0000
   1078 H         134.0772  113.5886   74.5285 H        69        0    0.0000
   1079 H         131.4000  116.4689   75.1497 H        69        0    0.0000
   1080 H         131.5461  115.2683   73.8619 H        69        0    0.0000
   1081 H         132.9433  116.7086   72.5309 H        69        0    0.0000
   1082 H         131.6362  118.6596   72.1288 H        69        0    0.0000
   1083 H         131.2275  118.8511   73.8309 H        69        0    0.0000
   1084 C         130.3665  115.3799   69.5737 C.3      70        0    0.0000
   1085 C         130.7854  116.5400   70.4660 C.3      70        0    0.0000
   1086 C         130.1572  116.1772   71.8156 C.3      70        0    0.0000
   1087 C         130.0540  117.3265   72.8229 C.3      70        0    0.0000
   1088 C         128.8292  115.4757   71.4696 C.3      70        0    0.0000
   1089 C         128.9005  115.1620   69.9623 C.3      70        0    0.0000
   1090 C         128.3008  113.8178   69.5384 C.3      70        0    0.0000
   1091 H         130.4793  115.6195   68.5119 H        70        0    0.0000
   1092 H         130.9856  114.5028   69.7923 H        70        0    0.0000
   1093 H         131.8739  116.6336   70.5309 H        70        0    0.0000
   1094 H         130.3866  117.4782   70.0647 H        70        0    0.0000
   1095 H         130.8060  115.4164   72.2751 H        70        0    0.0000
   1096 H         129.2834  118.0299   72.4859 H        70        0    0.0000
   1097 H         129.7171  116.9286   73.7875 H        70        0    0.0000
   1098 H         127.9524  116.1001   71.6724 H        70        0    0.0000
   1099 H         128.7181  114.5775   72.0865 H        70        0    0.0000
   1100 H         128.3156  115.9406   69.4496 H        70        0    0.0000
   1101 H         128.1989  113.7995   68.4469 H        70        0    0.0000
   1102 H         128.9987  113.0146   69.8031 H        70        0    0.0000
   1103 C         126.9137  113.5059   70.1761 C.3      71        0    0.0000
   1104 C         126.6302  112.0070   70.3508 C.3      71        0    0.0000
   1105 H         126.1542  113.9195   69.5003 H        71        0    0.0000
   1106 H         126.8144  114.0440   71.1260 H        71        0    0.0000
   1107 H         126.4670  111.5732   69.3560 H        71        0    0.0000
   1108 H         127.4927  111.4856   70.7824 H        71        0    0.0000
   1109 C         125.3471  111.6956   71.1965 C.3      72        0    0.0000
   1110 C         125.2893  110.2596   71.7368 C.3      72        0    0.0000
   1111 H         124.4861  111.8444   70.5323 H        72        0    0.0000
   1112 H         125.2501  112.4301   72.0047 H        72        0    0.0000
   1113 H         125.1259  109.5829   70.8883 H        72        0    0.0000
   1114 H         126.2423  109.9663   72.1926 H        72        0    0.0000
   1115 C         123.0966  106.3820   72.9605 C.3      73        0    0.0000
   1116 C         122.7809  107.8717   73.1181 C.3      73        0    0.0000
   1117 C         124.1288  108.5800   73.3060 C.3      73        0    0.0000
   1118 C         124.1193  110.0065   72.7495 C.3      73        0    0.0000
   1119 C         125.1185  107.6333   72.6189 C.3      73        0    0.0000
   1120 C         124.6222  106.2523   73.0598 C.3      73        0    0.0000
   1121 C         125.1623  105.0849   72.2290 C.3      73        0    0.0000
   1122 H         122.6005  105.7839   73.7324 H        73        0    0.0000
   1123 H         122.7263  106.0311   71.9897 H        73        0    0.0000
   1124 H         122.1197  108.0524   73.9725 H        73        0    0.0000
   1125 H         122.2600  108.2312   72.2225 H        73        0    0.0000
   1126 H         124.3560  108.6044   74.3818 H        73        0    0.0000
   1127 H         124.2148  110.7188   73.5778 H        73        0    0.0000
   1128 H         123.1611  110.2174   72.2603 H        73        0    0.0000
   1129 H         126.1495  107.8181   72.9371 H        73        0    0.0000
   1130 H         125.0699  107.7383   71.5278 H        73        0    0.0000
   1131 H         124.8855  106.1061   74.1175 H        73        0    0.0000
   1132 H         126.2544  105.0335   72.3104 H        73        0    0.0000
   1133 H         124.9320  105.2567   71.1707 H        73        0    0.0000
   1134 C         122.0646  103.8765   75.5268 C.3      74        0    0.0000
   1135 C         123.4060  104.2576   74.9162 C.3      74        0    0.0000
   1136 C         123.2447  103.8417   73.4504 C.3      74        0    0.0000
   1137 C         124.5475  103.7231   72.6535 C.3      74        0    0.0000
   1138 C         122.3676  102.5748   73.4822 C.3      74        0    0.0000
   1139 C         121.7849  102.5033   74.9072 C.3      74        0    0.0000
   1140 C         120.3341  102.0215   75.0041 C.3      74        0    0.0000
   1141 H         122.1102  103.8331   76.6194 H        74        0    0.0000
   1142 H         121.3070  104.6169   75.2471 H        74        0    0.0000
   1143 H         123.6132  105.3272   75.0198 H        74        0    0.0000
   1144 H         124.2099  103.7054   75.4153 H        74        0    0.0000
   1145 H         122.6489  104.6263   72.9600 H        74        0    0.0000
   1146 H         125.2847  103.1751   73.2522 H        74        0    0.0000
   1147 H         124.3640  103.1238   71.7539 H        74        0    0.0000
   1148 H         122.9326  101.6604   73.2715 H        74        0    0.0000
   1149 H         121.5947  102.6453   72.7093 H        74        0    0.0000
   1150 H         122.3941  101.7734   75.4614 H        74        0    0.0000
   1151 H         120.2150  101.4255   75.9166 H        74        0    0.0000
   1152 H         119.6739  102.8908   75.1072 H        74        0    0.0000
   1153 C         119.8584  101.1734   73.7865 C.3      75        0    0.0000
   1154 C         119.1940  101.9970   72.6740 C.3      75        0    0.0000
   1155 H         120.7514  100.6926   73.3670 H        75        0    0.0000
   1156 H         119.2013  100.3668   74.1322 H        75        0    0.0000
   1157 H         118.1107  102.0713   72.8254 H        75        0    0.0000
   1158 H         119.5888  103.0198   72.7255 H        75        0    0.0000
   1159 C         122.2390  101.2035   68.8093 C.3      76        0    0.0000
   1160 C         121.3268  102.1488   69.5896 C.3      76        0    0.0000
   1161 C         120.9925  101.4443   70.9159 C.3      76        0    0.0000
   1162 C         119.4903  101.4697   71.2273 C.3      76        0    0.0000
   1163 C         121.5769  100.0312   70.7662 C.3      76        0    0.0000
   1164 C         122.7806  100.1997   69.8304 C.3      76        0    0.0000
   1165 C         124.0515  100.7219   70.5252 C.3      76        0    0.0000
   1166 H         121.6397  100.6696   68.0608 H        76        0    0.0000
   1167 H         123.0249  101.7417   68.2702 H        76        0    0.0000
   1168 H         120.4363  102.3933   69.0003 H        76        0    0.0000
   1169 H         121.8459  103.0924   69.7953 H        76        0    0.0000
   1170 H         121.5335  101.9639   71.7193 H        76        0    0.0000
   1171 H         119.0586  100.4698   71.1034 H        76        0    0.0000
   1172 H         118.9827  102.1249   70.5091 H        76        0    0.0000
   1173 H         121.8424   99.5923   71.7329 H        76        0    0.0000
   1174 H         120.8447   99.3644   70.2926 H        76        0    0.0000
   1175 H         123.0067   99.2493   69.3301 H        76        0    0.0000
   1176 H         123.8042  101.3167   71.4110 H        76        0    0.0000
   1177 H         124.5891  101.3888   69.8402 H        76        0    0.0000
   1178 C         121.9786   97.4335   70.9866 C.3      77        0    0.0000
   1179 C         122.7592   98.5584   71.6708 C.3      77        0    0.0000
   1180 C         124.2469   98.3131   71.3612 C.3      77        0    0.0000
   1181 C         125.0137   99.5682   70.9264 C.3      77        0    0.0000
   1182 C         124.2381   97.2302   70.2775 C.3      77        0    0.0000
   1183 C         123.0124   96.3695   70.6023 C.3      77        0    0.0000
   1184 C         123.2876   95.3573   71.7305 C.3      77        0    0.0000
   1185 H         121.1701   97.0554   71.6195 H        77        0    0.0000
   1186 H         121.5143   97.8299   70.0745 H        77        0    0.0000
   1187 H         122.4050   99.5316   71.3135 H        77        0    0.0000
   1188 H         122.5955   98.5320   72.7544 H        77        0    0.0000
   1189 H         124.7215   97.8930   72.2595 H        77        0    0.0000
   1190 H         125.6446   99.9133   71.7542 H        77        0    0.0000
   1191 H         125.6843   99.3369   70.0908 H        77        0    0.0000
   1192 H         125.1698   96.6555   70.2644 H        77        0    0.0000
   1193 H         124.1142   97.6835   69.2854 H        77        0    0.0000
   1194 H         122.6903   95.8329   69.7008 H        77        0    0.0000
   1195 H         122.9165   94.3606   71.4672 H        77        0    0.0000
   1196 H         122.7528   95.6675   72.6361 H        77        0    0.0000
   1197 C         127.6907   95.6026   69.6397 C.3      78        0    0.0000
   1198 C         127.1868   95.3851   71.0583 C.3      78        0    0.0000
   1199 C         125.7287   95.8574   70.9970 C.3      78        0    0.0000
   1200 C         124.8038   95.2690   72.0701 C.3      78        0    0.0000
   1201 C         125.2781   95.6322   69.5390 C.3      78        0    0.0000
   1202 C         126.5181   95.1223   68.7821 C.3      78        0    0.0000
   1203 C         126.6271   95.6046   67.3334 C.3      78        0    0.0000
   1204 H         127.8967   96.6662   69.4688 H        78        0    0.0000
   1205 H         128.6075   95.0395   69.4399 H        78        0    0.0000
   1206 H         127.2668   94.3236   71.3165 H        78        0    0.0000
   1207 H         127.7699   95.9525   71.7904 H        78        0    0.0000
   1208 H         125.7366   96.9458   71.1583 H        78        0    0.0000
   1209 H         125.0671   94.2164   72.2283 H        78        0    0.0000
   1210 H         124.9848   95.7843   73.0208 H        78        0    0.0000
   1211 H         124.9235   96.5839   69.1241 H        78        0    0.0000
   1212 H         124.4510   94.9200   69.4501 H        78        0    0.0000
   1213 H         126.5044   94.0228   68.8024 H        78        0    0.0000
   1214 H         127.6284   96.0090   67.1437 H        78        0    0.0000
   1215 H         126.4990   94.7512   66.6569 H        78        0    0.0000
   1216 C         123.2916   96.4179   70.0171 C.3      79        0    0.0000
   1217 C         124.5601   96.0193   69.2759 C.3      79        0    0.0000
   1218 C         124.6291   97.0457   68.1403 C.3      79        0    0.0000
   1219 C         125.5642   96.6834   66.9826 C.3      79        0    0.0000
   1220 C         123.1632   97.3183   67.7501 C.3      79        0    0.0000
   1221 C         122.3082   96.7100   68.8790 C.3      79        0    0.0000
   1222 C         121.0662   97.5150   69.2736 C.3      79        0    0.0000
   1223 H         122.9342   95.6193   70.6746 H        79        0    0.0000
   1224 H         123.4852   97.3037   70.6320 H        79        0    0.0000
   1225 H         125.4419   96.0617   69.9226 H        79        0    0.0000
   1226 H         124.4626   94.9949   68.9001 H        79        0    0.0000
   1227 H         125.0185   97.9781   68.5764 H        79        0    0.0000
   1228 H         124.9650   96.3255   66.1369 H        79        0    0.0000
   1229 H         126.0805   97.5888   66.6420 H        79        0    0.0000
   1230 H         122.8852   96.8618   66.7940 H        79        0    0.0000
   1231 H         123.0098   98.3965   67.6337 H        79        0    0.0000
   1232 H         121.9466   95.7374   68.5124 H        79        0    0.0000
   1233 H         120.2094   96.8354   69.3527 H        79        0    0.0000
   1234 H         121.2198   97.9454   70.2703 H        79        0    0.0000
   1235 C         120.7054   98.6624   68.2830 C.3      80        0    0.0000
   1236 C         119.3907   98.4392   67.5220 C.3      80        0    0.0000
   1237 H         121.5193   98.7146   67.5486 H        80        0    0.0000
   1238 H         120.7008   99.6214   68.8144 H        80        0    0.0000
   1239 H         118.5655   98.4985   68.2433 H        80        0    0.0000
   1240 H         119.2183   99.2303   66.7829 H        80        0    0.0000
   1241 C         121.7111   95.0384   64.7423 C.3      81        0    0.0000
   1242 C         120.5515   95.1143   65.7389 C.3      81        0    0.0000
   1243 C         120.6543   96.4876   66.4155 C.3      81        0    0.0000
   1244 C         119.2860   97.0366   66.8289 C.3      81        0    0.0000
   1245 C         121.3940   97.3342   65.3744 C.3      81        0    0.0000
   1246 C         122.4663   96.3690   64.8583 C.3      81        0    0.0000
   1247 C         123.1172   96.7859   63.5364 C.3      81        0    0.0000
   1248 H         122.3712   94.1919   64.9600 H        81        0    0.0000
   1249 H         121.3141   94.8891   63.7310 H        81        0    0.0000
   1250 H         120.6053   94.3074   66.4777 H        81        0    0.0000
   1251 H         119.6015   95.0011   65.2029 H        81        0    0.0000
   1252 H         121.2950   96.3849   67.3035 H        81        0    0.0000
   1253 H         118.8112   96.3371   67.5273 H        81        0    0.0000
   1254 H         118.6260   97.1090   65.9565 H        81        0    0.0000
   1255 H         121.8327   98.2345   65.8163 H        81        0    0.0000
   1256 H         120.7189   97.6404   64.5655 H        81        0    0.0000
   1257 H         123.2398   96.2576   65.6321 H        81        0    0.0000
   1258 H         122.3619   97.1871   62.8506 H        81        0    0.0000
   1259 H         123.5479   95.9023   63.0505 H        81        0    0.0000
   1260 C         124.2430   97.8370   63.7378 C.3      82        0    0.0000
   1261 C         123.7386   99.2853   63.8109 C.3      82        0    0.0000
   1262 H         124.7324   97.5984   64.6908 H        82        0    0.0000
   1263 H         125.0032   97.7183   62.9568 H        82        0    0.0000
   1264 H         122.7552   99.3413   64.2922 H        82        0    0.0000
   1265 H         124.4307   99.8553   64.4439 H        82        0    0.0000
   1266 H         123.7049   99.7917   62.8463 H        82        0    0.0000
   1267 H         190.5571  111.0577  232.1368 H         0        0    0.0000
@<TRIPOS>BOND
     1     1     2      1
     2     1     6      1
     3     1     8      1
     4     1     9      1
     5     2     3      1
     6     2    10      1
     7     2    11      1
     8     3     4      1
     9     3     5      1
    10     3    12      1
    11     4    13      1
    12     4    14      1
    13     4  1267      H
    14     5     6      1
    15     5    15      1
    16     5    16      1
    17     6     7      1
    18     6    17      1
    19     7    18      1
    20     7    19      1
    21     7    23      1
    22    20    21      1
    23    20    25      1
    24    20    27      1
    25    20    28      1
    26    21    22      1
    27    21    29      1
    28    21    30      1
    29    22    23      1
    30    22    24      1
    31    22    31      1
    32    23    32      1
    33    23    33      1
    34    24    25      1
    35    24    34      1
    36    24    35      1
    37    25    26      1
    38    25    36      1
    39    26    37      1
    40    26    38      1
    41    26    39      1
    42    39    40      1
    43    39    41      1
    44    39    42      1
    45    40    43      1
    46    40    44      1
    47    40    48      1
    48    45    46      1
    49    45    50      1
    50    45    52      1
    51    45    53      1
    52    46    47      1
    53    46    54      1
    54    46    55      1
    55    47    48      1
    56    47    49      1
    57    47    56      1
    58    48    57      1
    59    48    58      1
    60    49    50      1
    61    49    59      1
    62    49    60      1
    63    50    51      1
    64    50    61      1
    65    51    62      1
    66    51    63      1
    67    51    64      1
    68    64    65      1
    69    64    66      1
    70    64    67      1
    71    65    68      1
    72    65    69      1
    73    65    73      1
    74    70    71      1
    75    70    75      1
    76    70    77      1
    77    70    78      1
    78    71    72      1
    79    71    79      1
    80    71    80      1
    81    72    73      1
    82    72    74      1
    83    72    81      1
    84    73    82      1
    85    73    83      1
    86    74    75      1
    87    74    84      1
    88    74    85      1
    89    75    76      1
    90    75    86      1
    91    76    87      1
    92    76    88      1
    93    76    92      1
    94    89    90      1
    95    89    94      1
    96    89    96      1
    97    89    97      1
    98    90    91      1
    99    90    98      1
   100    90    99      1
   101    91    92      1
   102    91    93      1
   103    91   100      1
   104    92   101      1
   105    92   102      1
   106    93    94      1
   107    93   103      1
   108    93   104      1
   109    94    95      1
   110    94   105      1
   111    95   106      1
   112    95   107      1
   113    95   108      1
   114   108   109      1
   115   108   110      1
   116   108   111      1
   117   109   112      1
   118   109   113      1
   119   109   114      1
   120   114   115      1
   121   114   116      1
   122   114   117      1
   123   115   118      1
   124   115   119      1
   125   115   120      1
   126   120   121      1
   127   120   122      1
   128   120   123      1
   129   121   124      1
   130   121   125      1
   131   121   126      1
   132   126   127      1
   133   126   128      1
   134   126   129      1
   135   127   130      1
   136   127   131      1
   137   127   135      1
   138   132   133      1
   139   132   137      1
   140   132   139      1
   141   132   140      1
   142   133   134      1
   143   133   141      1
   144   133   142      1
   145   134   135      1
   146   134   136      1
   147   134   143      1
   148   135   144      1
   149   135   145      1
   150   136   137      1
   151   136   146      1
   152   136   147      1
   153   137   138      1
   154   137   148      1
   155   138   149      1
   156   138   150      1
   157   138   154      1
   158   151   152      1
   159   151   156      1
   160   151   158      1
   161   151   159      1
   162   152   153      1
   163   152   160      1
   164   152   161      1
   165   153   154      1
   166   153   155      1
   167   153   162      1
   168   154   163      1
   169   154   164      1
   170   155   156      1
   171   155   165      1
   172   155   166      1
   173   156   157      1
   174   156   167      1
   175   157   168      1
   176   157   169      1
   177   157   170      1
   178   170   171      1
   179   170   172      1
   180   170   173      1
   181   171   174      1
   182   171   175      1
   183   171   179      1
   184   176   177      1
   185   176   181      1
   186   176   183      1
   187   176   184      1
   188   177   178      1
   189   177   185      1
   190   177   186      1
   191   178   179      1
   192   178   180      1
   193   178   187      1
   194   179   188      1
   195   179   189      1
   196   180   181      1
   197   180   190      1
   198   180   191      1
   199   181   182      1
   200   181   192      1
   201   182   193      1
   202   182   194      1
   203   182   195      1
   204   195   196      1
   205   195   197      1
   206   195   198      1
   207   196   199      1
   208   196   200      1
   209   196   204      1
   210   201   202      1
   211   201   206      1
   212   201   208      1
   213   201   209      1
   214   202   203      1
   215   202   210      1
   216   202   211      1
   217   203   204      1
   218   203   205      1
   219   203   212      1
   220   204   213      1
   221   204   214      1
   222   205   206      1
   223   205   215      1
   224   205   216      1
   225   206   207      1
   226   206   217      1
   227   207   218      1
   228   207   219      1
   229   207   223      1
   230   220   221      1
   231   220   225      1
   232   220   227      1
   233   220   228      1
   234   221   222      1
   235   221   229      1
   236   221   230      1
   237   222   223      1
   238   222   224      1
   239   222   231      1
   240   223   232      1
   241   223   233      1
   242   224   225      1
   243   224   234      1
   244   224   235      1
   245   225   226      1
   246   225   236      1
   247   226   237      1
   248   226   238      1
   249   226   242      1
   250   239   240      1
   251   239   244      1
   252   239   246      1
   253   239   247      1
   254   240   241      1
   255   240   248      1
   256   240   249      1
   257   241   242      1
   258   241   243      1
   259   241   250      1
   260   242   251      1
   261   242   252      1
   262   243   244      1
   263   243   253      1
   264   243   254      1
   265   244   245      1
   266   244   255      1
   267   245   256      1
   268   245   257      1
   269   245   261      1
   270   258   259      1
   271   258   263      1
   272   258   265      1
   273   258   266      1
   274   259   260      1
   275   259   267      1
   276   259   268      1
   277   260   261      1
   278   260   262      1
   279   260   269      1
   280   261   270      1
   281   261   271      1
   282   262   263      1
   283   262   272      1
   284   262   273      1
   285   263   264      1
   286   263   274      1
   287   264   275      1
   288   264   276      1
   289   264   277      1
   290   277   278      1
   291   277   279      1
   292   277   280      1
   293   278   281      1
   294   278   282      1
   295   278   286      1
   296   283   284      1
   297   283   288      1
   298   283   290      1
   299   283   291      1
   300   284   285      1
   301   284   292      1
   302   284   293      1
   303   285   286      1
   304   285   287      1
   305   285   294      1
   306   286   295      1
   307   286   296      1
   308   287   288      1
   309   287   297      1
   310   287   298      1
   311   288   289      1
   312   288   299      1
   313   289   300      1
   314   289   301      1
   315   289   305      1
   316   302   303      1
   317   302   307      1
   318   302   309      1
   319   302   310      1
   320   303   304      1
   321   303   311      1
   322   303   312      1
   323   304   305      1
   324   304   306      1
   325   304   313      1
   326   305   314      1
   327   305   315      1
   328   306   307      1
   329   306   316      1
   330   306   317      1
   331   307   308      1
   332   307   318      1
   333   308   319      1
   334   308   320      1
   335   308   324      1
   336   321   322      1
   337   321   326      1
   338   321   328      1
   339   321   329      1
   340   322   323      1
   341   322   330      1
   342   322   331      1
   343   323   324      1
   344   323   325      1
   345   323   332      1
   346   324   333      1
   347   324   334      1
   348   325   326      1
   349   325   335      1
   350   325   336      1
   351   326   327      1
   352   326   337      1
   353   327   338      1
   354   327   339      1
   355   327   343      1
   356   340   341      1
   357   340   345      1
   358   340   347      1
   359   340   348      1
   360   341   342      1
   361   341   349      1
   362   341   350      1
   363   342   343      1
   364   342   344      1
   365   342   351      1
   366   343   352      1
   367   343   353      1
   368   344   345      1
   369   344   354      1
   370   344   355      1
   371   345   346      1
   372   345   356      1
   373   346   357      1
   374   346   358      1
   375   346   362      1
   376   359   360      1
   377   359   364      1
   378   359   366      1
   379   359   367      1
   380   360   361      1
   381   360   368      1
   382   360   369      1
   383   361   362      1
   384   361   363      1
   385   361   370      1
   386   362   371      1
   387   362   372      1
   388   363   364      1
   389   363   373      1
   390   363   374      1
   391   364   365      1
   392   364   375      1
   393   365   376      1
   394   365   377      1
   395   365   381      1
   396   378   379      1
   397   378   383      1
   398   378   385      1
   399   378   386      1
   400   379   380      1
   401   379   387      1
   402   379   388      1
   403   380   381      1
   404   380   382      1
   405   380   389      1
   406   381   390      1
   407   381   391      1
   408   382   383      1
   409   382   392      1
   410   382   393      1
   411   383   384      1
   412   383   394      1
   413   384   395      1
   414   384   396      1
   415   384   397      1
   416   397   398      1
   417   397   399      1
   418   397   400      1
   419   398   401      1
   420   398   402      1
   421   398   406      1
   422   403   404      1
   423   403   408      1
   424   403   410      1
   425   403   411      1
   426   404   405      1
   427   404   412      1
   428   404   413      1
   429   405   406      1
   430   405   407      1
   431   405   414      1
   432   406   415      1
   433   406   416      1
   434   407   408      1
   435   407   417      1
   436   407   418      1
   437   408   409      1
   438   408   419      1
   439   409   420      1
   440   409   421      1
   441   409   425      1
   442   422   423      1
   443   422   427      1
   444   422   429      1
   445   422   430      1
   446   423   424      1
   447   423   431      1
   448   423   432      1
   449   424   425      1
   450   424   426      1
   451   424   433      1
   452   425   434      1
   453   425   435      1
   454   426   427      1
   455   426   436      1
   456   426   437      1
   457   427   428      1
   458   427   438      1
   459   428   439      1
   460   428   440      1
   461   428   444      1
   462   441   442      1
   463   441   446      1
   464   441   448      1
   465   441   449      1
   466   442   443      1
   467   442   450      1
   468   442   451      1
   469   443   444      1
   470   443   445      1
   471   443   452      1
   472   444   453      1
   473   444   454      1
   474   445   446      1
   475   445   455      1
   476   445   456      1
   477   446   447      1
   478   446   457      1
   479   447   458      1
   480   447   459      1
   481   447   463      1
   482   460   461      1
   483   460   465      1
   484   460   467      1
   485   460   468      1
   486   461   462      1
   487   461   469      1
   488   461   470      1
   489   462   463      1
   490   462   464      1
   491   462   471      1
   492   463   472      1
   493   463   473      1
   494   464   465      1
   495   464   474      1
   496   464   475      1
   497   465   466      1
   498   465   476      1
   499   466   477      1
   500   466   478      1
   501   466   479      1
   502   479   480      1
   503   479   481      1
   504   479   482      1
   505   480   483      1
   506   480   484      1
   507   480   488      1
   508   485   486      1
   509   485   490      1
   510   485   492      1
   511   485   493      1
   512   486   487      1
   513   486   494      1
   514   486   495      1
   515   487   488      1
   516   487   489      1
   517   487   496      1
   518   488   497      1
   519   488   498      1
   520   489   490      1
   521   489   499      1
   522   489   500      1
   523   490   491      1
   524   490   501      1
   525   491   502      1
   526   491   503      1
   527   491   507      1
   528   504   505      1
   529   504   509      1
   530   504   511      1
   531   504   512      1
   532   505   506      1
   533   505   513      1
   534   505   514      1
   535   506   507      1
   536   506   508      1
   537   506   515      1
   538   507   516      1
   539   507   517      1
   540   508   509      1
   541   508   518      1
   542   508   519      1
   543   509   510      1
   544   509   520      1
   545   510   521      1
   546   510   522      1
   547   510   526      1
   548   523   524      1
   549   523   528      1
   550   523   530      1
   551   523   531      1
   552   524   525      1
   553   524   532      1
   554   524   533      1
   555   525   526      1
   556   525   527      1
   557   525   534      1
   558   526   535      1
   559   526   536      1
   560   527   528      1
   561   527   537      1
   562   527   538      1
   563   528   529      1
   564   528   539      1
   565   529   540      1
   566   529   541      1
   567   529   545      1
   568   542   543      1
   569   542   547      1
   570   542   549      1
   571   542   550      1
   572   543   544      1
   573   543   551      1
   574   543   552      1
   575   544   545      1
   576   544   546      1
   577   544   553      1
   578   545   554      1
   579   545   555      1
   580   546   547      1
   581   546   556      1
   582   546   557      1
   583   547   548      1
   584   547   558      1
   585   548   559      1
   586   548   560      1
   587   548   564      1
   588   561   562      1
   589   561   566      1
   590   561   568      1
   591   561   569      1
   592   562   563      1
   593   562   570      1
   594   562   571      1
   595   563   564      1
   596   563   565      1
   597   563   572      1
   598   564   573      1
   599   564   574      1
   600   565   566      1
   601   565   575      1
   602   565   576      1
   603   566   567      1
   604   566   577      1
   605   567   578      1
   606   567   579      1
   607   567   583      1
   608   580   581      1
   609   580   585      1
   610   580   587      1
   611   580   588      1
   612   581   582      1
   613   581   589      1
   614   581   590      1
   615   582   583      1
   616   582   584      1
   617   582   591      1
   618   583   592      1
   619   583   593      1
   620   584   585      1
   621   584   594      1
   622   584   595      1
   623   585   586      1
   624   585   596      1
   625   586   597      1
   626   586   598      1
   627   586   602      1
   628   599   600      1
   629   599   604      1
   630   599   606      1
   631   599   607      1
   632   600   601      1
   633   600   608      1
   634   600   609      1
   635   601   602      1
   636   601   603      1
   637   601   610      1
   638   602   611      1
   639   602   612      1
   640   603   604      1
   641   603   613      1
   642   603   614      1
   643   604   605      1
   644   604   615      1
   645   605   616      1
   646   605   617      1
   647   605   621      1
   648   618   619      1
   649   618   623      1
   650   618   625      1
   651   618   626      1
   652   619   620      1
   653   619   627      1
   654   619   628      1
   655   620   621      1
   656   620   622      1
   657   620   629      1
   658   621   630      1
   659   621   631      1
   660   622   623      1
   661   622   632      1
   662   622   633      1
   663   623   624      1
   664   623   634      1
   665   624   635      1
   666   624   636      1
   667   624   640      1
   668   637   638      1
   669   637   642      1
   670   637   644      1
   671   637   645      1
   672   638   639      1
   673   638   646      1
   674   638   647      1
   675   639   640      1
   676   639   641      1
   677   639   648      1
   678   640   649      1
   679   640   650      1
   680   641   642      1
   681   641   651      1
   682   641   652      1
   683   642   643      1
   684   642   653      1
   685   643   654      1
   686   643   655      1
   687   643   659      1
   688   656   657      1
   689   656   661      1
   690   656   663      1
   691   656   664      1
   692   657   658      1
   693   657   665      1
   694   657   666      1
   695   658   659      1
   696   658   660      1
   697   658   667      1
   698   659   668      1
   699   659   669      1
   700   660   661      1
   701   660   670      1
   702   660   671      1
   703   661   662      1
   704   661   672      1
   705   662   673      1
   706   662   674      1
   707   662   675      1
   708   675   676      1
   709   675   677      1
   710   675   678      1
   711   676   679      1
   712   676   680      1
   713   676   684      1
   714   681   682      1
   715   681   686      1
   716   681   688      1
   717   681   689      1
   718   682   683      1
   719   682   690      1
   720   682   691      1
   721   683   684      1
   722   683   685      1
   723   683   692      1
   724   684   693      1
   725   684   694      1
   726   685   686      1
   727   685   695      1
   728   685   696      1
   729   686   687      1
   730   686   697      1
   731   687   698      1
   732   687   699      1
   733   687   703      1
   734   700   701      1
   735   700   705      1
   736   700   707      1
   737   700   708      1
   738   701   702      1
   739   701   709      1
   740   701   710      1
   741   702   703      1
   742   702   704      1
   743   702   711      1
   744   703   712      1
   745   703   713      1
   746   704   705      1
   747   704   714      1
   748   704   715      1
   749   705   706      1
   750   705   716      1
   751   706   717      1
   752   706   718      1
   753   706   722      1
   754   719   720      1
   755   719   724      1
   756   719   726      1
   757   719   727      1
   758   720   721      1
   759   720   728      1
   760   720   729      1
   761   721   722      1
   762   721   723      1
   763   721   730      1
   764   722   731      1
   765   722   732      1
   766   723   724      1
   767   723   733      1
   768   723   734      1
   769   724   725      1
   770   724   735      1
   771   725   736      1
   772   725   737      1
   773   725   741      1
   774   738   739      1
   775   738   743      1
   776   738   745      1
   777   738   746      1
   778   739   740      1
   779   739   747      1
   780   739   748      1
   781   740   741      1
   782   740   742      1
   783   740   749      1
   784   741   750      1
   785   741   751      1
   786   742   743      1
   787   742   752      1
   788   742   753      1
   789   743   744      1
   790   743   754      1
   791   744   755      1
   792   744   756      1
   793   744   760      1
   794   757   758      1
   795   757   762      1
   796   757   764      1
   797   757   765      1
   798   758   759      1
   799   758   766      1
   800   758   767      1
   801   759   760      1
   802   759   761      1
   803   759   768      1
   804   760   769      1
   805   760   770      1
   806   761   762      1
   807   761   771      1
   808   761   772      1
   809   762   763      1
   810   762   773      1
   811   763   774      1
   812   763   775      1
   813   763   779      1
   814   776   777      1
   815   776   781      1
   816   776   783      1
   817   776   784      1
   818   777   778      1
   819   777   785      1
   820   777   786      1
   821   778   779      1
   822   778   780      1
   823   778   787      1
   824   779   788      1
   825   779   789      1
   826   780   781      1
   827   780   790      1
   828   780   791      1
   829   781   782      1
   830   781   792      1
   831   782   793      1
   832   782   794      1
   833   782   795      1
   834   795   796      1
   835   795   797      1
   836   795   798      1
   837   796   799      1
   838   796   800      1
   839   796   804      1
   840   801   802      1
   841   801   806      1
   842   801   808      1
   843   801   809      1
   844   802   803      1
   845   802   810      1
   846   802   811      1
   847   803   804      1
   848   803   805      1
   849   803   812      1
   850   804   813      1
   851   804   814      1
   852   805   806      1
   853   805   815      1
   854   805   816      1
   855   806   807      1
   856   806   817      1
   857   807   818      1
   858   807   819      1
   859   807   823      1
   860   820   821      1
   861   820   825      1
   862   820   827      1
   863   820   828      1
   864   821   822      1
   865   821   829      1
   866   821   830      1
   867   822   823      1
   868   822   824      1
   869   822   831      1
   870   823   832      1
   871   823   833      1
   872   824   825      1
   873   824   834      1
   874   824   835      1
   875   825   826      1
   876   825   836      1
   877   826   837      1
   878   826   838      1
   879   826   839      1
   880   839   840      1
   881   839   841      1
   882   839   842      1
   883   840   843      1
   884   840   844      1
   885   840   848      1
   886   845   846      1
   887   845   850      1
   888   845   852      1
   889   845   853      1
   890   846   847      1
   891   846   854      1
   892   846   855      1
   893   847   848      1
   894   847   849      1
   895   847   856      1
   896   848   857      1
   897   848   858      1
   898   849   850      1
   899   849   859      1
   900   849   860      1
   901   850   851      1
   902   850   861      1
   903   851   862      1
   904   851   863      1
   905   851   867      1
   906   864   865      1
   907   864   869      1
   908   864   871      1
   909   864   872      1
   910   865   866      1
   911   865   873      1
   912   865   874      1
   913   866   867      1
   914   866   868      1
   915   866   875      1
   916   867   876      1
   917   867   877      1
   918   868   869      1
   919   868   878      1
   920   868   879      1
   921   869   870      1
   922   869   880      1
   923   870   881      1
   924   870   882      1
   925   870   883      1
   926   883   884      1
   927   883   885      1
   928   883   886      1
   929   884   887      1
   930   884   888      1
   931   884   892      1
   932   889   890      1
   933   889   894      1
   934   889   896      1
   935   889   897      1
   936   890   891      1
   937   890   898      1
   938   890   899      1
   939   891   892      1
   940   891   893      1
   941   891   900      1
   942   892   901      1
   943   892   902      1
   944   893   894      1
   945   893   903      1
   946   893   904      1
   947   894   895      1
   948   894   905      1
   949   895   906      1
   950   895   907      1
   951   895   908      1
   952   908   909      1
   953   908   910      1
   954   908   911      1
   955   909   912      1
   956   909   913      1
   957   909   917      1
   958   914   915      1
   959   914   919      1
   960   914   921      1
   961   914   922      1
   962   915   916      1
   963   915   923      1
   964   915   924      1
   965   916   917      1
   966   916   918      1
   967   916   925      1
   968   917   926      1
   969   917   927      1
   970   918   919      1
   971   918   928      1
   972   918   929      1
   973   919   920      1
   974   919   930      1
   975   920   931      1
   976   920   932      1
   977   920   936      1
   978   933   934      1
   979   933   938      1
   980   933   940      1
   981   933   941      1
   982   934   935      1
   983   934   942      1
   984   934   943      1
   985   935   936      1
   986   935   937      1
   987   935   944      1
   988   936   945      1
   989   936   946      1
   990   937   938      1
   991   937   947      1
   992   937   948      1
   993   938   939      1
   994   938   949      1
   995   939   950      1
   996   939   951      1
   997   939   955      1
   998   952   953      1
   999   952   957      1
  1000   952   959      1
  1001   952   960      1
  1002   953   954      1
  1003   953   961      1
  1004   953   962      1
  1005   954   955      1
  1006   954   956      1
  1007   954   963      1
  1008   955   964      1
  1009   955   965      1
  1010   956   957      1
  1011   956   966      1
  1012   956   967      1
  1013   957   958      1
  1014   957   968      1
  1015   958   969      1
  1016   958   970      1
  1017   958   971      1
  1018   971   972      1
  1019   971   973      1
  1020   971   974      1
  1021   972   975      1
  1022   972   976      1
  1023   972   980      1
  1024   977   978      1
  1025   977   982      1
  1026   977   984      1
  1027   977   985      1
  1028   978   979      1
  1029   978   986      1
  1030   978   987      1
  1031   979   980      1
  1032   979   981      1
  1033   979   988      1
  1034   980   989      1
  1035   980   990      1
  1036   981   982      1
  1037   981   991      1
  1038   981   992      1
  1039   982   983      1
  1040   982   993      1
  1041   983   994      1
  1042   983   995      1
  1043   983   999      1
  1044   996   997      1
  1045   996  1001      1
  1046   996  1003      1
  1047   996  1004      1
  1048   997   998      1
  1049   997  1005      1
  1050   997  1006      1
  1051   998   999      1
  1052   998  1000      1
  1053   998  1007      1
  1054   999  1008      1
  1055   999  1009      1
  1056  1000  1001      1
  1057  1000  1010      1
  1058  1000  1011      1
  1059  1001  1002      1
  1060  1001  1012      1
  1061  1002  1013      1
  1062  1002  1014      1
  1063  1002  1015      1
  1064  1015  1016      1
  1065  1015  1017      1
  1066  1015  1018      1
  1067  1016  1019      1
  1068  1016  1020      1
  1069  1016  1024      1
  1070  1021  1022      1
  1071  1021  1026      1
  1072  1021  1028      1
  1073  1021  1029      1
  1074  1022  1023      1
  1075  1022  1030      1
  1076  1022  1031      1
  1077  1023  1024      1
  1078  1023  1025      1
  1079  1023  1032      1
  1080  1024  1033      1
  1081  1024  1034      1
  1082  1025  1026      1
  1083  1025  1035      1
  1084  1025  1036      1
  1085  1026  1027      1
  1086  1026  1037      1
  1087  1027  1038      1
  1088  1027  1039      1
  1089  1027  1043      1
  1090  1040  1041      1
  1091  1040  1045      1
  1092  1040  1047      1
  1093  1040  1048      1
  1094  1041  1042      1
  1095  1041  1049      1
  1096  1041  1050      1
  1097  1042  1043      1
  1098  1042  1044      1
  1099  1042  1051      1
  1100  1043  1052      1
  1101  1043  1053      1
  1102  1044  1045      1
  1103  1044  1054      1
  1104  1044  1055      1
  1105  1045  1046      1
  1106  1045  1056      1
  1107  1046  1057      1
  1108  1046  1058      1
  1109  1046  1059      1
  1110  1059  1060      1
  1111  1059  1061      1
  1112  1059  1062      1
  1113  1060  1063      1
  1114  1060  1064      1
  1115  1060  1068      1
  1116  1065  1066      1
  1117  1065  1070      1
  1118  1065  1072      1
  1119  1065  1073      1
  1120  1066  1067      1
  1121  1066  1074      1
  1122  1066  1075      1
  1123  1067  1068      1
  1124  1067  1069      1
  1125  1067  1076      1
  1126  1068  1077      1
  1127  1068  1078      1
  1128  1069  1070      1
  1129  1069  1079      1
  1130  1069  1080      1
  1131  1070  1071      1
  1132  1070  1081      1
  1133  1071  1082      1
  1134  1071  1083      1
  1135  1071  1087      1
  1136  1084  1085      1
  1137  1084  1089      1
  1138  1084  1091      1
  1139  1084  1092      1
  1140  1085  1086      1
  1141  1085  1093      1
  1142  1085  1094      1
  1143  1086  1087      1
  1144  1086  1088      1
  1145  1086  1095      1
  1146  1087  1096      1
  1147  1087  1097      1
  1148  1088  1089      1
  1149  1088  1098      1
  1150  1088  1099      1
  1151  1089  1090      1
  1152  1089  1100      1
  1153  1090  1101      1
  1154  1090  1102      1
  1155  1090  1103      1
  1156  1103  1104      1
  1157  1103  1105      1
  1158  1103  1106      1
  1159  1104  1107      1
  1160  1104  1108      1
  1161  1104  1109      1
  1162  1109  1110      1
  1163  1109  1111      1
  1164  1109  1112      1
  1165  1110  1113      1
  1166  1110  1114      1
  1167  1110  1118      1
  1168  1115  1116      1
  1169  1115  1120      1
  1170  1115  1122      1
  1171  1115  1123      1
  1172  1116  1117      1
  1173  1116  1124      1
  1174  1116  1125      1
  1175  1117  1118      1
  1176  1117  1119      1
  1177  1117  1126      1
  1178  1118  1127      1
  1179  1118  1128      1
  1180  1119  1120      1
  1181  1119  1129      1
  1182  1119  1130      1
  1183  1120  1121      1
  1184  1120  1131      1
  1185  1121  1132      1
  1186  1121  1133      1
  1187  1121  1137      1
  1188  1134  1135      1
  1189  1134  1139      1
  1190  1134  1141      1
  1191  1134  1142      1
  1192  1135  1136      1
  1193  1135  1143      1
  1194  1135  1144      1
  1195  1136  1137      1
  1196  1136  1138      1
  1197  1136  1145      1
  1198  1137  1146      1
  1199  1137  1147      1
  1200  1138  1139      1
  1201  1138  1148      1
  1202  1138  1149      1
  1203  1139  1140      1
  1204  1139  1150      1
  1205  1140  1151      1
  1206  1140  1152      1
  1207  1140  1153      1
  1208  1153  1154      1
  1209  1153  1155      1
  1210  1153  1156      1
  1211  1154  1157      1
  1212  1154  1158      1
  1213  1154  1162      1
  1214  1159  1160      1
  1215  1159  1164      1
  1216  1159  1166      1
  1217  1159  1167      1
  1218  1160  1161      1
  1219  1160  1168      1
  1220  1160  1169      1
  1221  1161  1162      1
  1222  1161  1163      1
  1223  1161  1170      1
  1224  1162  1171      1
  1225  1162  1172      1
  1226  1163  1164      1
  1227  1163  1173      1
  1228  1163  1174      1
  1229  1164  1165      1
  1230  1164  1175      1
  1231  1165  1176      1
  1232  1165  1177      1
  1233  1165  1181      1
  1234  1178  1179      1
  1235  1178  1183      1
  1236  1178  1185      1
  1237  1178  1186      1
  1238  1179  1180      1
  1239  1179  1187      1
  1240  1179  1188      1
  1241  1180  1181      1
  1242  1180  1182      1
  1243  1180  1189      1
  1244  1181  1190      1
  1245  1181  1191      1
  1246  1182  1183      1
  1247  1182  1192      1
  1248  1182  1193      1
  1249  1183  1184      1
  1250  1183  1194      1
  1251  1184  1195      1
  1252  1184  1196      1
  1253  1184  1200      1
  1254  1197  1198      1
  1255  1197  1202      1
  1256  1197  1204      1
  1257  1197  1205      1
  1258  1198  1199      1
  1259  1198  1206      1
  1260  1198  1207      1
  1261  1199  1200      1
  1262  1199  1201      1
  1263  1199  1208      1
  1264  1200  1209      1
  1265  1200  1210      1
  1266  1201  1202      1
  1267  1201  1211      1
  1268  1201  1212      1
  1269  1202  1203      1
  1270  1202  1213      1
  1271  1203  1214      1
  1272  1203  1215      1
  1273  1203  1219      1
  1274  1216  1217      1
  1275  1216  1221      1
  1276  1216  1223      1
  1277  1216  1224      1
  1278  1217  1218      1
  1279  1217  1225      1
  1280  1217  1226      1
  1281  1218  1219      1
  1282  1218  1220      1
  1283  1218  1227      1
  1284  1219  1228      1
  1285  1219  1229      1
  1286  1220  1221      1
  1287  1220  1230      1
  1288  1220  1231      1
  1289  1221  1222      1
  1290  1221  1232      1
  1291  1222  1233      1
  1292  1222  1234      1
  1293  1222  1235      1
  1294  1235  1236      1
  1295  1235  1237      1
  1296  1235  1238      1
  1297  1236  1239      1
  1298  1236  1240      1
  1299  1236  1244      1
  1300  1241  1242      1
  1301  1241  1246      1
  1302  1241  1248      1
  1303  1241  1249      1
  1304  1242  1243      1
  1305  1242  1250      1
  1306  1242  1251      1
  1307  1243  1244      1
  1308  1243  1245      1
  1309  1243  1252      1
  1310  1244  1253      1
  1311  1244  1254      1
  1312  1245  1246      1
  1313  1245  1255      1
  1314  1245  1256      1
  1315  1246  1247      1
  1316  1246  1257      1
  1317  1247  1258      1
  1318  1247  1259      1
  1319  1247  1260      1
  1320  1260  1261      1
  1321  1260  1262      1
  1322  1260  1263      1
  1323  1261  1264      1
  1324  1261  1265      1
  1325  1261  1266      H
