###
### Created by PolyChef-cpp17 on Wed Feb 26 21:14:12 2025
###

@<TRIPOS>MOLECULE
NO_INFO
1041 1089 1 0 0
SMALL
USER_CHARGES


@<TRIPOS>ATOM
      1 C          73.0754  141.3337   83.3660 C.3       0        0    0.0000
      2 C          72.1051  140.6773   84.3380 C.3       0        0    0.0000
      3 C          71.9764  141.7228   85.4507 C.3       0        0    0.0000
      4 C          71.3871  141.2111   86.7687 C.3       0        0    0.0000
      5 C          73.3675  142.3780   85.5548 C.3       0        0    0.0000
      6 C          74.1360  141.9338   84.2948 C.3       0        0    0.0000
      7 C          75.0379  142.9979   83.6620 C.3       0        0    0.0000
      8 H          73.5041  140.6105   82.6653 H         0        0    0.0000
      9 H          72.5540  142.1024   82.7850 H         0        0    0.0000
     10 H          71.1419  140.4566   83.8677 H         0        0    0.0000
     11 H          72.5285  139.7356   84.7043 H         0        0    0.0000
     12 H          71.2887  142.4986   85.0814 H         0        0    0.0000
     13 H          71.8794  140.2694   87.0392 H         0        0    0.0000
     14 H          71.6175  141.9273   87.5663 H         0        0    0.0000
     15 H          73.9189  142.0667   86.4486 H         0        0    0.0000
     16 H          73.2557  143.4654   85.6240 H         0        0    0.0000
     17 H          74.7953  141.1078   84.6017 H         0        0    0.0000
     18 H          75.5673  142.5573   82.8089 H         0        0    0.0000
     19 H          74.4133  143.8055   83.2621 H         0        0    0.0000
     20 C          78.7948  141.3737   85.8310 C.3       1        0    0.0000
     21 C          77.5642  141.5184   84.9324 C.3       1        0    0.0000
     22 C          76.6506  142.5610   85.6015 C.3       1        0    0.0000
     23 C          76.0857  143.6122   84.6382 C.3       1        0    0.0000
     24 C          77.5204  143.1827   86.6988 C.3       1        0    0.0000
     25 C          78.4317  142.0410   87.1620 C.3       1        0    0.0000
     26 C          77.7255  141.0875   88.1445 C.3       1        0    0.0000
     27 H          79.1057  140.3295   85.9309 H         1        0    0.0000
     28 H          79.6320  141.9162   85.3733 H         1        0    0.0000
     29 H          77.8705  141.8075   83.9210 H         1        0    0.0000
     30 H          77.0374  140.5605   84.8498 H         1        0    0.0000
     31 H          75.8183  142.0302   86.0855 H         1        0    0.0000
     32 H          75.5996  144.4086   85.2142 H         1        0    0.0000
     33 H          76.8946  144.0818   84.0667 H         1        0    0.0000
     34 H          76.9181  143.6023   87.5111 H         1        0    0.0000
     35 H          78.1328  143.9951   86.2864 H         1        0    0.0000
     36 H          79.3291  142.4565   87.6377 H         1        0    0.0000
     37 H          77.9716  140.0422   87.9274 H         1        0    0.0000
     38 H          76.6394  141.1889   88.0329 H         1        0    0.0000
     39 C          78.0921  141.4063   89.6230 C.3       2        0    0.0000
     40 C          78.5734  140.1874   90.4231 C.3       2        0    0.0000
     41 H          78.9083  142.1396   89.5960 H         2        0    0.0000
     42 H          77.2452  141.8979   90.1159 H         2        0    0.0000
     43 H          77.7375  139.6813   90.9202 H         2        0    0.0000
     44 H          79.0028  139.4648   89.7174 H         2        0    0.0000
     45 C          81.7790  143.4099   90.4545 C.3       3        0    0.0000
     46 C          80.6626  142.4412   90.0567 C.3       3        0    0.0000
     47 C          80.9325  141.1258   90.8090 C.3       3        0    0.0000
     48 C          79.6918  140.5151   91.4721 C.3       3        0    0.0000
     49 C          82.0210  141.4838   91.8260 C.3       3        0    0.0000
     50 C          82.8609  142.5598   91.1293 C.3       3        0    0.0000
     51 C          83.8711  141.9621   90.1317 C.3       3        0    0.0000
     52 H          82.1411  143.9876   89.5987 H         3        0    0.0000
     53 H          81.3804  144.1286   91.1820 H         3        0    0.0000
     54 H          79.6860  142.8760   90.2964 H         3        0    0.0000
     55 H          80.6806  142.2618   88.9753 H         3        0    0.0000
     56 H          81.3550  140.4020   90.0975 H         3        0    0.0000
     57 H          79.9730  139.5862   91.9826 H         3        0    0.0000
     58 H          79.2952  141.1911   92.2383 H         3        0    0.0000
     59 H          82.6101  140.6095   92.1211 H         3        0    0.0000
     60 H          81.5712  141.9028   92.7354 H         3        0    0.0000
     61 H          83.3973  143.1521   91.8815 H         3        0    0.0000
     62 H          84.4745  142.7465   89.6616 H         3        0    0.0000
     63 H          83.3291  141.4516   89.3267 H         3        0    0.0000
     64 C          84.8127  140.9273   90.8133 C.3       4        0    0.0000
     65 C          86.3056  141.1803   90.5593 C.3       4        0    0.0000
     66 H          84.6340  141.0000   91.8938 H         4        0    0.0000
     67 H          84.5238  139.9126   90.5155 H         4        0    0.0000
     68 H          86.6537  140.6498   89.6653 H         4        0    0.0000
     69 H          86.4406  142.2513   90.3610 H         4        0    0.0000
     70 C          89.1425  143.2783   92.8248 C.3       5        0    0.0000
     71 C          88.8271  142.7639   91.4176 C.3       5        0    0.0000
     72 C          88.6905  141.2415   91.5294 C.3       5        0    0.0000
     73 C          87.2281  140.8257   91.7767 C.3       5        0    0.0000
     74 C          89.6470  140.9170   92.6839 C.3       5        0    0.0000
     75 C          89.4154  142.0413   93.6966 C.3       5        0    0.0000
     76 C          90.5873  142.1980   94.6721 C.3       5        0    0.0000
     77 H          89.9995  143.9603   92.7859 H         5        0    0.0000
     78 H          88.2949  143.8450   93.2269 H         5        0    0.0000
     79 H          89.6694  143.0042   90.7564 H         5        0    0.0000
     80 H          87.9404  143.2471   90.9949 H         5        0    0.0000
     81 H          89.0438  140.7675   90.6047 H         5        0    0.0000
     82 H          86.8483  141.3522   92.6607 H         5        0    0.0000
     83 H          87.1507  139.7550   91.9939 H         5        0    0.0000
     84 H          90.6814  140.9429   92.3168 H         5        0    0.0000
     85 H          89.4811  139.9300   93.1258 H         5        0    0.0000
     86 H          88.5042  141.8120   94.2668 H         5        0    0.0000
     87 H          90.5588  141.4087   95.4323 H         5        0    0.0000
     88 H          90.4947  143.1534   95.2021 H         5        0    0.0000
     89 C          93.7479  144.7825   95.9818 C.3       6        0    0.0000
     90 C          93.2241  144.2599   94.6416 C.3       6        0    0.0000
     91 C          93.0913  142.7390   94.7947 C.3       6        0    0.0000
     92 C          91.9590  142.1646   93.9388 C.3       6        0    0.0000
     93 C          92.9062  142.5558   96.3047 C.3       6        0    0.0000
     94 C          93.9097  143.5557   96.8889 C.3       6        0    0.0000
     95 C          93.6895  143.8912   98.3665 C.3       6        0    0.0000
     96 H          94.7002  145.3100   95.8611 H         6        0    0.0000
     97 H          93.0305  145.4988   96.3998 H         6        0    0.0000
     98 H          93.9026  144.5141   93.8201 H         6        0    0.0000
     99 H          92.2570  144.7269   94.4204 H         6        0    0.0000
    100 H          94.0464  142.2802   94.5002 H         6        0    0.0000
    101 H          92.1916  141.1243   93.6816 H         6        0    0.0000
    102 H          91.8807  142.7139   92.9933 H         6        0    0.0000
    103 H          93.1195  141.5300   96.6214 H         6        0    0.0000
    104 H          91.8816  142.8049   96.6080 H         6        0    0.0000
    105 H          94.9249  143.1568   96.7478 H         6        0    0.0000
    106 H          92.6586  143.6602   98.6594 H         6        0    0.0000
    107 H          93.8270  144.9686   98.5175 H         6        0    0.0000
    108 C          94.6740  143.1323   99.2980 C.3       7        0    0.0000
    109 C          95.1760  143.9651  100.4863 C.3       7        0    0.0000
    110 H          94.1300  142.2658   99.6953 H         7        0    0.0000
    111 H          95.5085  142.7351   98.7084 H         7        0    0.0000
    112 H          94.3479  144.4689  100.9984 H         7        0    0.0000
    113 H          95.6260  143.2801  101.2162 H         7        0    0.0000
    114 C          96.2796  145.0130  100.1088 C.3       8        0    0.0000
    115 C          96.9524  145.6743  101.3202 C.3       8        0    0.0000
    116 H          95.7840  145.7984   99.5239 H         8        0    0.0000
    117 H          97.0192  144.5483   99.4462 H         8        0    0.0000
    118 H          96.3029  146.4876  101.6685 H         8        0    0.0000
    119 H          97.0495  144.9711  102.1557 H         8        0    0.0000
    120 C          98.3484  146.3141  101.0032 C.3       9        0    0.0000
    121 C          99.1429  146.7275  102.2503 C.3       9        0    0.0000
    122 H          98.9301  145.5547  100.4651 H         9        0    0.0000
    123 H          98.2205  147.1572  100.3141 H         9        0    0.0000
    124 H          98.6706  147.5745  102.7615 H         9        0    0.0000
    125 H          99.1292  145.8875  102.9566 H         9        0    0.0000
    126 C         100.6497  147.0552  101.9661 C.3      10        0    0.0000
    127 C         101.4606  147.4020  103.2229 C.3      10        0    0.0000
    128 H         100.6641  147.9275  101.3002 H        10        0    0.0000
    129 H         101.1090  146.2292  101.4104 H        10        0    0.0000
    130 H         101.1886  148.4189  103.5337 H        10        0    0.0000
    131 H         101.2043  146.7399  104.0583 H        10        0    0.0000
    132 C         104.5245  149.4118  105.8469 C.3      11        0    0.0000
    133 C         103.3289  149.0324  104.9844 C.3      11        0    0.0000
    134 C         103.8266  147.7904  104.2378 C.3      11        0    0.0000
    135 C         103.0128  147.3965  103.0013 C.3      11        0    0.0000
    136 C         105.3281  148.0382  103.9938 C.3      11        0    0.0000
    137 C         105.7070  149.2343  104.8889 C.3      11        0    0.0000
    138 C         107.0847  149.1516  105.5532 C.3      11        0    0.0000
    139 H         104.4492  150.4373  106.2216 H        11        0    0.0000
    140 H         104.5876  148.7384  106.7088 H        11        0    0.0000
    141 H         102.4404  148.8211  105.5875 H        11        0    0.0000
    142 H         103.0891  149.8551  104.3018 H        11        0    0.0000
    143 H         103.7558  146.9463  104.9403 H        11        0    0.0000
    144 H         103.2539  148.0825  102.1806 H        11        0    0.0000
    145 H         103.3185  146.3954  102.6751 H        11        0    0.0000
    146 H         105.5561  148.2760  102.9492 H        11        0    0.0000
    147 H         105.8926  147.1308  104.2343 H        11        0    0.0000
    148 H         105.7266  150.1218  104.2385 H        11        0    0.0000
    149 H         107.0372  148.4437  106.3891 H        11        0    0.0000
    150 H         107.8051  148.7429  104.8348 H        11        0    0.0000
    151 C         111.3220  149.7952  105.9042 C.3      12        0    0.0000
    152 C         109.8659  149.3226  105.8937 C.3      12        0    0.0000
    153 C         109.0555  150.4084  106.6136 C.3      12        0    0.0000
    154 C         107.6236  150.5148  106.0818 C.3      12        0    0.0000
    155 C         109.9059  151.6674  106.4142 C.3      12        0    0.0000
    156 C         111.3308  151.1468  106.6301 C.3      12        0    0.0000
    157 C         112.4342  152.0761  106.1167 C.3      12        0    0.0000
    158 H         111.9733  149.0738  106.4093 H        12        0    0.0000
    159 H         111.6821  149.8912  104.8728 H        12        0    0.0000
    160 H         109.7558  148.3541  106.3934 H        12        0    0.0000
    161 H         109.5316  149.1932  104.8573 H        12        0    0.0000
    162 H         109.0344  150.1656  107.6861 H        12        0    0.0000
    163 H         107.5951  151.2426  105.2620 H        12        0    0.0000
    164 H         106.9547  150.8932  106.8637 H        12        0    0.0000
    165 H         109.6453  152.4544  107.1290 H        12        0    0.0000
    166 H         109.7833  152.0677  105.4001 H        12        0    0.0000
    167 H         111.4764  150.9582  107.7038 H        12        0    0.0000
    168 H         112.0575  153.1019  106.0296 H        12        0    0.0000
    169 H         112.7320  151.7621  105.1091 H        12        0    0.0000
    170 C         113.6907  152.0624  107.0298 C.3      13        0    0.0000
    171 C         114.7885  153.0441  106.5953 C.3      13        0    0.0000
    172 H         113.3553  152.3498  108.0346 H        13        0    0.0000
    173 H         114.0785  151.0401  107.1094 H        13        0    0.0000
    174 H         115.0512  153.7333  107.4064 H        13        0    0.0000
    175 H         115.6933  152.4651  106.3701 H        13        0    0.0000
    176 C         116.1961  156.8496  104.1016 C.3      14        0    0.0000
    177 C         115.9693  155.9017  105.2783 C.3      14        0    0.0000
    178 C         115.6774  154.5155  104.6780 C.3      14        0    0.0000
    179 C         114.4390  153.8588  105.3019 C.3      14        0    0.0000
    180 C         115.5611  154.7609  103.1657 C.3      14        0    0.0000
    181 C         116.4785  155.9587  102.8891 C.3      14        0    0.0000
    182 C         117.9714  155.5982  102.7814 C.3      14        0    0.0000
    183 H         115.2759  157.4207  103.9237 H        14        0    0.0000
    184 H         116.9918  157.5735  104.3037 H        14        0    0.0000
    185 H         115.1575  156.2704  105.9148 H        14        0    0.0000
    186 H         116.8695  155.8500  105.9021 H        14        0    0.0000
    187 H         116.5528  153.8770  104.8632 H        14        0    0.0000
    188 H         113.9482  153.2027  104.5738 H        14        0    0.0000
    189 H         113.7124  154.6359  105.5679 H        14        0    0.0000
    190 H         115.8270  153.8727  102.5843 H        14        0    0.0000
    191 H         114.5301  155.0299  102.9017 H        14        0    0.0000
    192 H         116.1636  156.4724  101.9718 H        14        0    0.0000
    193 H         118.1911  154.6568  103.2964 H        14        0    0.0000
    194 H         118.5667  156.3735  103.2788 H        14        0    0.0000
    195 C         118.4442  155.5039  101.3031 C.3      15        0    0.0000
    196 C         119.9700  155.4558  101.1379 C.3      15        0    0.0000
    197 H         118.0283  154.5733  100.8962 H        15        0    0.0000
    198 H         118.0057  156.3236  100.7220 H        15        0    0.0000
    199 H         120.2531  155.0216  100.1720 H        15        0    0.0000
    200 H         120.3453  156.4872  101.1404 H        15        0    0.0000
    201 C         123.8033  155.7674  100.6263 C.3      16        0    0.0000
    202 C         122.9748  155.8189  101.9090 C.3      16        0    0.0000
    203 C         122.2012  154.4914  101.9880 C.3      16        0    0.0000
    204 C         120.7125  154.7011  102.2945 C.3      16        0    0.0000
    205 C         122.4720  153.8003  100.6427 C.3      16        0    0.0000
    206 C         123.8618  154.2928  100.2194 C.3      16        0    0.0000
    207 C         125.0275  153.5574  100.9056 C.3      16        0    0.0000
    208 H         123.2838  156.3373   99.8453 H        16        0    0.0000
    209 H         124.7905  156.2220  100.7554 H        16        0    0.0000
    210 H         122.3179  156.6956  101.9045 H        16        0    0.0000
    211 H         123.6323  155.9137  102.7812 H        16        0    0.0000
    212 H         122.6499  153.8870  102.7890 H        16        0    0.0000
    213 H         120.5911  155.2538  103.2334 H        16        0    0.0000
    214 H         120.2313  153.7260  102.4368 H        16        0    0.0000
    215 H         122.4077  152.7107  100.7207 H        16        0    0.0000
    216 H         121.7348  154.1204   99.8949 H        16        0    0.0000
    217 H         123.9756  154.2141   99.1307 H        16        0    0.0000
    218 H         124.7784  152.5079  101.0958 H        16        0    0.0000
    219 H         125.2179  154.0162  101.8834 H        16        0    0.0000
    220 C         128.8784  155.4225  102.2165 C.3      17        0    0.0000
    221 C         127.4888  154.8110  102.0191 C.3      17        0    0.0000
    222 C         127.2330  154.8026  100.5063 C.3      17        0    0.0000
    223 C         126.3388  153.6373  100.0737 C.3      17        0    0.0000
    224 C         128.6460  154.7772   99.9143 C.3      17        0    0.0000
    225 C         129.4043  155.7581  100.8148 C.3      17        0    0.0000
    226 C         130.9296  155.6574  100.7258 C.3      17        0    0.0000
    227 H         128.8358  156.3185  102.8450 H        17        0    0.0000
    228 H         129.5265  154.6991  102.7257 H        17        0    0.0000
    229 H         126.7197  155.3875  102.5444 H        17        0    0.0000
    230 H         127.4743  153.7961  102.4342 H        17        0    0.0000
    231 H         126.7558  155.7554  100.2343 H        17        0    0.0000
    232 H         126.8872  152.6956  100.1959 H        17        0    0.0000
    233 H         126.0910  153.7230   99.0092 H        17        0    0.0000
    234 H         128.6561  155.0927   98.8662 H        17        0    0.0000
    235 H         129.0799  153.7713   99.9761 H        17        0    0.0000
    236 H         129.0862  156.7809  100.5653 H        17        0    0.0000
    237 H         131.2349  155.4029   99.7041 H        17        0    0.0000
    238 H         131.2768  154.8421  101.3718 H        17        0    0.0000
    239 C         135.1628  157.2060  100.0368 C.3      18        0    0.0000
    240 C         133.8996  156.3437  100.0988 C.3      18        0    0.0000
    241 C         133.1410  156.7651  101.3701 C.3      18        0    0.0000
    242 C         131.6351  156.9699  101.1646 C.3      18        0    0.0000
    243 C         133.8466  158.0451  101.8293 C.3      18        0    0.0000
    244 C         135.3103  157.8464  101.4214 C.3      18        0    0.0000
    245 C         136.0832  156.9619  102.4182 C.3      18        0    0.0000
    246 H         136.0363  156.6268   99.7228 H        18        0    0.0000
    247 H         135.0149  157.9958   99.2892 H        18        0    0.0000
    248 H         133.3087  156.4785   99.1862 H        18        0    0.0000
    249 H         134.1652  155.2818  100.1588 H        18        0    0.0000
    250 H         133.2993  155.9940  102.1377 H        18        0    0.0000
    251 H         131.1834  157.3105  102.1039 H        18        0    0.0000
    252 H         131.4533  157.7550  100.4216 H        18        0    0.0000
    253 H         133.7243  158.2180  102.9035 H        18        0    0.0000
    254 H         133.4357  158.9172  101.3043 H        18        0    0.0000
    255 H         135.8052  158.8224  101.3393 H        18        0    0.0000
    256 H         137.1328  156.8562  102.1223 H        18        0    0.0000
    257 H         135.6503  155.9545  102.4224 H        18        0    0.0000
    258 C         135.0089  160.6699  105.5648 C.3      19        0    0.0000
    259 C         134.6832  159.1947  105.3187 C.3      19        0    0.0000
    260 C         135.2366  158.8483  103.9248 C.3      19        0    0.0000
    261 C         136.0111  157.5258  103.8669 C.3      19        0    0.0000
    262 C         136.1078  160.0515  103.5499 C.3      19        0    0.0000
    263 C         135.4128  161.2500  104.2049 C.3      19        0    0.0000
    264 C         134.2127  161.7552  103.3817 C.3      19        0    0.0000
    265 H         134.1763  161.1971  106.0401 H        19        0    0.0000
    266 H         135.8633  160.7333  106.2509 H        19        0    0.0000
    267 H         135.1159  158.5776  106.1139 H        19        0    0.0000
    268 H         133.5988  159.0350  105.3387 H        19        0    0.0000
    269 H         134.3938  158.8045  103.2202 H        19        0    0.0000
    270 H         137.0336  157.6876  104.2286 H        19        0    0.0000
    271 H         135.5528  156.7843  104.5313 H        19        0    0.0000
    272 H         136.2116  160.1607  102.4655 H        19        0    0.0000
    273 H         137.1158  159.9389  103.9698 H        19        0    0.0000
    274 H         136.1342  162.0663  104.3377 H        19        0    0.0000
    275 H         133.3670  162.0095  104.0302 H        19        0    0.0000
    276 H         133.8710  160.9587  102.7101 H        19        0    0.0000
    277 C         134.5868  162.9922  102.5147 C.3      20        0    0.0000
    278 C         134.9350  162.6513  101.0587 C.3      20        0    0.0000
    279 H         133.7099  163.6523  102.5095 H        20        0    0.0000
    280 H         135.3968  163.5509  102.9982 H        20        0    0.0000
    281 H         134.4029  161.7542  100.7209 H        20        0    0.0000
    282 H         134.5910  163.4778  100.4239 H        20        0    0.0000
    283 C         137.8578  162.8652  104.1705 C.3      21        0    0.0000
    284 C         136.6541  162.4254  103.3384 C.3      21        0    0.0000
    285 C         137.2093  161.8990  102.0037 C.3      21        0    0.0000
    286 C         136.4714  162.4857  100.7930 C.3      21        0    0.0000
    287 C         138.7086  162.2324  102.0450 C.3      21        0    0.0000
    288 C         139.0792  162.1977  103.5331 C.3      21        0    0.0000
    289 C         139.3124  160.7822  104.0921 C.3      21        0    0.0000
    290 H         137.9617  163.9552  104.0956 H        21        0    0.0000
    291 H         137.7350  162.6243  105.2311 H        21        0    0.0000
    292 H         135.9537  163.2580  103.2103 H        21        0    0.0000
    293 H         136.1107  161.6237  103.8523 H        21        0    0.0000
    294 H         137.0934  160.8059  101.9982 H        21        0    0.0000
    295 H         136.6274  161.8554   99.9098 H        21        0    0.0000
    296 H         136.8903  163.4712  100.5565 H        21        0    0.0000
    297 H         139.3000  161.5396  101.4386 H        21        0    0.0000
    298 H         138.8848  163.2433  101.6547 H        21        0    0.0000
    299 H         139.9718  162.8098  103.7150 H        21        0    0.0000
    300 H         138.3638  160.2704  104.2866 H        21        0    0.0000
    301 H         139.8319  160.8557  105.0552 H        21        0    0.0000
    302 C         140.0950  160.5036   99.5187 C.3      22        0    0.0000
    303 C         139.5229  160.8977  100.8796 C.3      22        0    0.0000
    304 C         140.6510  160.6985  101.9066 C.3      22        0    0.0000
    305 C         140.1846  159.9151  103.1407 C.3      22        0    0.0000
    306 C         141.7795  160.0140  101.1201 C.3      22        0    0.0000
    307 C         141.6173  160.5166   99.6799 C.3      22        0    0.0000
    308 C         142.2055  161.9175   99.4308 C.3      22        0    0.0000
    309 H         139.7660  159.4848   99.2771 H        22        0    0.0000
    310 H         139.7374  161.1574   98.7170 H        22        0    0.0000
    311 H         138.6307  160.3035  101.1055 H        22        0    0.0000
    312 H         139.2152  161.9500  100.8709 H        22        0    0.0000
    313 H         140.9976  161.6924  102.2235 H        22        0    0.0000
    314 H         141.0474  159.5194  103.6891 H        22        0    0.0000
    315 H         139.5913  159.0511  102.8180 H        22        0    0.0000
    316 H         142.7651  160.2320  101.5428 H        22        0    0.0000
    317 H         141.6486  158.9241  101.1367 H        22        0    0.0000
    318 H         142.0693  159.8046   98.9777 H        22        0    0.0000
    319 H         142.2834  162.4873  100.3629 H        22        0    0.0000
    320 H         141.5306  162.4808   98.7749 H        22        0    0.0000
    321 C         143.5680  163.7595   95.5609 C.3      23        0    0.0000
    322 C         142.7368  163.1862   96.7113 C.3      23        0    0.0000
    323 C         143.4857  161.9403   97.2172 C.3      23        0    0.0000
    324 C         143.5990  161.8520   98.7442 C.3      23        0    0.0000
    325 C         144.8549  162.0140   96.5339 C.3      23        0    0.0000
    326 C         144.5742  162.6690   95.1772 C.3      23        0    0.0000
    327 C         144.0189  161.6688   94.1455 C.3      23        0    0.0000
    328 H         142.9387  164.0919   94.7299 H        23        0    0.0000
    329 H         144.1131  164.6403   95.9238 H        23        0    0.0000
    330 H         142.5995  163.9454   97.4892 H        23        0    0.0000
    331 H         141.7392  162.9021   96.3565 H        23        0    0.0000
    332 H         142.9643  161.0483   96.8416 H        23        0    0.0000
    333 H         144.0780  160.9046   99.0186 H        23        0    0.0000
    334 H         144.2396  162.6545   99.1276 H        23        0    0.0000
    335 H         145.3207  161.0275   96.4415 H        23        0    0.0000
    336 H         145.5371  162.6498   97.1129 H        23        0    0.0000
    337 H         145.4960  163.1204   94.7888 H        23        0    0.0000
    338 H         143.7447  162.1737   93.2127 H        23        0    0.0000
    339 H         143.1046  161.2093   94.5397 H        23        0    0.0000
    340 C         147.7775  161.6884   96.2024 C.3      24        0    0.0000
    341 C         146.3471  161.2271   95.9600 C.3      24        0    0.0000
    342 C         146.3965  160.7027   94.5212 C.3      24        0    0.0000
    343 C         145.0369  160.5331   93.8362 C.3      24        0    0.0000
    344 C         147.3993  161.6168   93.7903 C.3      24        0    0.0000
    345 C         148.1322  162.4034   94.8945 C.3      24        0    0.0000
    346 C         149.6274  162.6369   94.6575 C.3      24        0    0.0000
    347 H         147.8512  162.3540   97.0680 H        24        0    0.0000
    348 H         148.4203  160.8203   96.3850 H        24        0    0.0000
    349 H         146.0416  160.4523   96.6699 H        24        0    0.0000
    350 H         145.6618  162.0752   96.0663 H        24        0    0.0000
    351 H         146.8527  159.7021   94.5619 H        24        0    0.0000
    352 H         145.1868  160.4802   92.7513 H        24        0    0.0000
    353 H         144.5992  159.5751   94.1409 H        24        0    0.0000
    354 H         146.9137  162.3175   93.1025 H        24        0    0.0000
    355 H         148.0755  161.0060   93.1823 H        24        0    0.0000
    356 H         147.6637  163.3983   94.9377 H        24        0    0.0000
    357 H         149.9061  163.6157   95.0656 H        24        0    0.0000
    358 H         150.2002  161.8877   95.2168 H        24        0    0.0000
    359 C         153.2011  164.5258   92.4207 C.3      25        0    0.0000
    360 C         151.7459  164.1792   92.1455 C.3      25        0    0.0000
    361 C         151.5381  162.9009   92.9603 C.3      25        0    0.0000
    362 C         150.0552  162.5786   93.1602 C.3      25        0    0.0000
    363 C         152.3209  163.1639   94.2598 C.3      25        0    0.0000
    364 C         153.3558  164.2570   93.9229 C.3      25        0    0.0000
    365 C         154.7881  163.9749   94.3939 C.3      25        0    0.0000
    366 H         153.4286  165.5657   92.1659 H        25        0    0.0000
    367 H         153.8510  163.8832   91.8169 H        25        0    0.0000
    368 H         151.0904  164.9846   92.4986 H        25        0    0.0000
    369 H         151.5560  164.0256   91.0788 H        25        0    0.0000
    370 H         152.0253  162.0706   92.4284 H        25        0    0.0000
    371 H         149.4357  163.2729   92.5803 H        25        0    0.0000
    372 H         149.8475  161.5737   92.7737 H        25        0    0.0000
    373 H         151.6593  163.5315   95.0540 H        25        0    0.0000
    374 H         152.7772  162.2398   94.6299 H        25        0    0.0000
    375 H         153.0314  165.1682   94.4473 H        25        0    0.0000
    376 H         155.4924  164.4740   93.7178 H        25        0    0.0000
    377 H         154.9838  162.8990   94.3128 H        25        0    0.0000
    378 C         158.4234  163.8861   97.3821 C.3      26        0    0.0000
    379 C         157.0749  164.6028   97.4860 C.3      26        0    0.0000
    380 C         156.5632  164.7886   96.0462 C.3      26        0    0.0000
    381 C         155.0855  164.4263   95.8528 C.3      26        0    0.0000
    382 C         157.4935  163.9185   95.1950 C.3      26        0    0.0000
    383 C         158.8461  163.9838   95.9122 C.3      26        0    0.0000
    384 C         159.6205  165.2758   95.5896 C.3      26        0    0.0000
    385 H         159.1580  164.2970   98.0811 H        26        0    0.0000
    386 H         158.2834  162.8301   97.6467 H        26        0    0.0000
    387 H         156.3880  164.0204   98.1100 H        26        0    0.0000
    388 H         157.1985  165.5805   97.9660 H        26        0    0.0000
    389 H         156.7186  165.8380   95.7577 H        26        0    0.0000
    390 H         154.8206  163.6068   96.5314 H        26        0    0.0000
    391 H         154.4453  165.2762   96.1159 H        26        0    0.0000
    392 H         157.5449  164.2660   94.1580 H        26        0    0.0000
    393 H         157.1373  162.8803   95.1794 H        26        0    0.0000
    394 H         159.4537  163.1141   95.6316 H        26        0    0.0000
    395 H         160.4408  165.4331   96.2987 H        26        0    0.0000
    396 H         158.9479  166.1365   95.6845 H        26        0    0.0000
    397 C         160.1880  165.2624   94.1406 C.3      27        0    0.0000
    398 C         160.9871  166.5205   93.7719 C.3      27        0    0.0000
    399 H         160.8620  164.3988   94.0723 H        27        0    0.0000
    400 H         159.3752  165.0827   93.4271 H        27        0    0.0000
    401 H         161.1426  166.5912   92.6889 H        27        0    0.0000
    402 H         160.3941  167.3975   94.0615 H        27        0    0.0000
    403 C         164.6901  169.5226   93.7152 C.3      28        0    0.0000
    404 C         163.2901  169.0094   94.0153 C.3      28        0    0.0000
    405 C         163.4044  167.4978   93.7804 C.3      28        0    0.0000
    406 C         162.3640  166.6406   94.5124 C.3      28        0    0.0000
    407 C         164.8772  167.1411   94.0689 C.3      28        0    0.0000
    408 C         165.5882  168.4725   94.3724 C.3      28        0    0.0000
    409 C         167.0330  168.5550   93.8734 C.3      28        0    0.0000
    410 H         164.8557  169.5628   92.6317 H        28        0    0.0000
    411 H         164.8560  170.5237   94.1246 H        28        0    0.0000
    412 H         163.0271  169.2478   95.0515 H        28        0    0.0000
    413 H         162.5387  169.4684   93.3652 H        28        0    0.0000
    414 H         163.2451  167.3269   92.7053 H        28        0    0.0000
    415 H         162.7724  165.6336   94.6591 H        28        0    0.0000
    416 H         162.1939  167.0591   95.5115 H        28        0    0.0000
    417 H         165.3064  166.6547   93.1840 H        28        0    0.0000
    418 H         164.9942  166.4414   94.9031 H        28        0    0.0000
    419 H         165.5663  168.6329   95.4602 H        28        0    0.0000
    420 H         167.0688  169.0578   92.8997 H        28        0    0.0000
    421 H         167.6210  169.1687   94.5662 H        28        0    0.0000
    422 C         171.1386  166.6861   92.1980 C.3      29        0    0.0000
    423 C         169.6606  167.0240   92.0622 C.3      29        0    0.0000
    424 C         169.2158  167.2028   93.5176 C.3      29        0    0.0000
    425 C         167.7030  167.1574   93.7530 C.3      29        0    0.0000
    426 C         170.0446  166.1832   94.3232 C.3      29        0    0.0000
    427 C         171.1577  165.7019   93.3721 C.3      29        0    0.0000
    428 C         172.5277  165.4770   94.0193 C.3      29        0    0.0000
    429 H         171.5423  166.2422   91.2827 H        29        0    0.0000
    430 H         171.7080  167.5968   92.4142 H        29        0    0.0000
    431 H         169.5011  167.9300   91.4693 H        29        0    0.0000
    432 H         169.1359  166.1981   91.5695 H        29        0    0.0000
    433 H         169.5513  168.2023   93.8331 H        29        0    0.0000
    434 H         167.2289  166.6092   92.9303 H        29        0    0.0000
    435 H         167.4996  166.5893   94.6685 H        29        0    0.0000
    436 H         169.4534  165.3244   94.6590 H        29        0    0.0000
    437 H         170.4349  166.6620   95.2277 H        29        0    0.0000
    438 H         170.8354  164.7270   92.9763 H        29        0    0.0000
    439 H         173.1270  164.8261   93.3717 H        29        0    0.0000
    440 H         173.0573  166.4353   94.0796 H        29        0    0.0000
    441 C         175.5922  162.9198   96.3125 C.3      30        0    0.0000
    442 C         174.0824  163.0231   96.1595 C.3      30        0    0.0000
    443 C         173.8559  164.5282   96.0033 C.3      30        0    0.0000
    444 C         172.4676  164.8479   95.4436 C.3      30        0    0.0000
    445 C         175.0287  164.9847   95.1164 C.3      30        0    0.0000
    446 C         176.1267  163.9125   95.2724 C.3      30        0    0.0000
    447 C         177.5375  164.4498   95.5440 C.3      30        0    0.0000
    448 H         175.9527  161.9026   96.1299 H        30        0    0.0000
    449 H         175.8766  163.1977   97.3332 H        30        0    0.0000
    450 H         173.7532  162.4784   95.2662 H        30        0    0.0000
    451 H         173.5539  162.6126   97.0254 H        30        0    0.0000
    452 H         173.9699  164.9978   96.9913 H        30        0    0.0000
    453 H         171.8543  163.9395   95.4116 H        30        0    0.0000
    454 H         171.9581  165.5479   96.1164 H        30        0    0.0000
    455 H         174.7308  165.0396   94.0619 H        30        0    0.0000
    456 H         175.3633  165.9871   95.4036 H        30        0    0.0000
    457 H         176.1793  163.3756   94.3134 H        30        0    0.0000
    458 H         177.4680  165.5005   95.8497 H        30        0    0.0000
    459 H         178.1110  164.4320   94.6095 H        30        0    0.0000
    460 C         182.0688  164.2586   96.6303 C.3      31        0    0.0000
    461 C         180.6581  164.7661   96.3732 C.3      31        0    0.0000
    462 C         179.8196  163.4828   96.3197 C.3      31        0    0.0000
    463 C         178.3276  163.6617   96.6280 C.3      31        0    0.0000
    464 C         180.5613  162.4626   97.2078 C.3      31        0    0.0000
    465 C         181.8529  163.1597   97.6729 C.3      31        0    0.0000
    466 C         183.0681  162.2376   97.7995 C.3      31        0    0.0000
    467 H         182.4993  163.8501   95.7079 H        31        0    0.0000
    468 H         182.7292  165.0512   96.9951 H        31        0    0.0000
    469 H         180.3516  165.4261   97.1920 H        31        0    0.0000
    470 H         180.5926  165.3364   95.4413 H        31        0    0.0000
    471 H         179.8792  163.1029   95.2888 H        31        0    0.0000
    472 H         177.8681  162.6733   96.7478 H        31        0    0.0000
    473 H         178.2198  164.1767   97.5899 H        31        0    0.0000
    474 H         180.7851  161.5681   96.6132 H        31        0    0.0000
    475 H         179.9696  162.1314   98.0677 H        31        0    0.0000
    476 H         181.6539  163.6392   98.6424 H        31        0    0.0000
    477 H         183.9516  162.7133   97.3576 H        31        0    0.0000
    478 H         183.2938  162.0794   98.8608 H        31        0    0.0000
    479 C         182.8403  160.8550   97.1263 C.3      32        0    0.0000
    480 C         184.1342  160.1528   96.6901 C.3      32        0    0.0000
    481 H         182.3418  160.2192   97.8691 H        32        0    0.0000
    482 H         182.1428  160.9630   96.2875 H        32        0    0.0000
    483 H         184.8847  160.8755   96.3487 H        32        0    0.0000
    484 H         184.5602  159.6487   97.5670 H        32        0    0.0000
    485 C         187.5305  159.4927   95.0776 C.3      33        0    0.0000
    486 C         186.4446  158.8280   95.9222 C.3      33        0    0.0000
    487 C         185.2497  158.5769   94.9862 C.3      33        0    0.0000
    488 C         183.9232  159.0523   95.5933 C.3      33        0    0.0000
    489 C         185.6260  159.2821   93.6740 C.3      33        0    0.0000
    490 C         187.1576  159.2197   93.6181 C.3      33        0    0.0000
    491 C         187.7165  157.8710   93.1292 C.3      33        0    0.0000
    492 H         187.5090  160.5748   95.2595 H        33        0    0.0000
    493 H         188.5321  159.1402   95.3434 H        33        0    0.0000
    494 H         186.1887  159.4589   96.7806 H        33        0    0.0000
    495 H         186.8062  157.8729   96.3211 H        33        0    0.0000
    496 H         185.1902  157.4956   94.7983 H        33        0    0.0000
    497 H         183.3749  158.2051   96.0214 H        33        0    0.0000
    498 H         183.2912  159.4702   94.8004 H        33        0    0.0000
    499 H         185.1452  158.8191   92.8067 H        33        0    0.0000
    500 H         185.3104  160.3332   93.7024 H        33        0    0.0000
    501 H         187.5460  160.0243   92.9808 H        33        0    0.0000
    502 H         186.9859  157.3388   92.5105 H        33        0    0.0000
    503 H         187.9200  157.2294   93.9952 H        33        0    0.0000
    504 C         188.9758  155.6135   89.4485 C.3      34        0    0.0000
    505 C         188.2821  156.5493   90.4265 C.3      34        0    0.0000
    506 C         189.3689  156.8235   91.4681 C.3      34        0    0.0000
    507 C         189.0427  158.0417   92.3355 C.3      34        0    0.0000
    508 C         190.6539  156.9550   90.6302 C.3      34        0    0.0000
    509 C         190.3760  156.2225   89.3014 C.3      34        0    0.0000
    510 C         191.4697  155.2482   88.8457 C.3      34        0    0.0000
    511 H         188.4500  155.5613   88.4900 H        34        0    0.0000
    512 H         189.0071  154.6024   89.8688 H        34        0    0.0000
    513 H         187.9788  157.4728   89.9183 H        34        0    0.0000
    514 H         187.3911  156.0928   90.8684 H        34        0    0.0000
    515 H         189.4656  155.9337   92.1071 H        34        0    0.0000
    516 H         189.8617  158.2358   93.0382 H        34        0    0.0000
    517 H         188.9590  158.9292   91.6970 H        34        0    0.0000
    518 H         190.8826  158.0067   90.4169 H        34        0    0.0000
    519 H         191.5130  156.5479   91.1737 H        34        0    0.0000
    520 H         190.3089  156.9980   88.5239 H        34        0    0.0000
    521 H         191.0189  154.4736   88.2140 H        34        0    0.0000
    522 H         191.8795  154.7370   89.7250 H        34        0    0.0000
    523 C         194.1854  158.7904   89.9561 C.3      35        0    0.0000
    524 C         193.3181  157.5294   89.9154 C.3      35        0    0.0000
    525 C         192.8445  157.3792   88.4637 C.3      35        0    0.0000
    526 C         192.6400  155.9146   88.0668 C.3      35        0    0.0000
    527 C         193.9287  158.1115   87.6661 C.3      35        0    0.0000
    528 C         194.1996  159.3496   88.5273 C.3      35        0    0.0000
    529 C         195.5050  160.0804   88.2013 C.3      35        0    0.0000
    530 H         193.7875  159.5271   90.6622 H        35        0    0.0000
    531 H         195.1950  158.5283   90.2944 H        35        0    0.0000
    532 H         192.4669  157.6069   90.6002 H        35        0    0.0000
    533 H         193.9142  156.6660   90.2344 H        35        0    0.0000
    534 H         191.8975  157.9276   88.3538 H        35        0    0.0000
    535 H         193.5592  155.3526   88.2707 H        35        0    0.0000
    536 H         192.4533  155.8350   86.9895 H        35        0    0.0000
    537 H         193.5867  158.3791   86.6613 H        35        0    0.0000
    538 H         194.8307  157.4942   87.5707 H        35        0    0.0000
    539 H         193.3519  160.0424   88.4221 H        35        0    0.0000
    540 H         195.7259  160.8269   88.9732 H        35        0    0.0000
    541 H         195.3880  160.6266   87.2576 H        35        0    0.0000
    542 C         199.9404  161.0154   87.4643 C.3      36        0    0.0000
    543 C         198.4351  160.8748   87.2859 C.3      36        0    0.0000
    544 C         198.0757  159.7637   88.2778 C.3      36        0    0.0000
    545 C         196.7082  159.1078   88.0632 C.3      36        0    0.0000
    546 C         199.2819  158.8043   88.2669 C.3      36        0    0.0000
    547 C         200.4127  159.5598   87.5417 C.3      36        0    0.0000
    548 C         201.8180  159.3542   88.1153 C.3      36        0    0.0000
    549 H         200.4023  161.5538   86.6310 H        36        0    0.0000
    550 H         200.1538  161.5674   88.3862 H        36        0    0.0000
    551 H         197.9084  161.8086   87.5059 H        36        0    0.0000
    552 H         198.2098  160.5927   86.2516 H        36        0    0.0000
    553 H         198.0478  160.2247   89.2767 H        36        0    0.0000
    554 H         196.6815  158.6539   87.0655 H        36        0    0.0000
    555 H         196.5854  158.2910   88.7843 H        36        0    0.0000
    556 H         199.0742  157.8652   87.7426 H        36        0    0.0000
    557 H         199.5428  158.5325   89.2954 H        36        0    0.0000
    558 H         200.4372  159.1773   86.5101 H        36        0    0.0000
    559 H         201.8063  158.4900   88.7899 H        36        0    0.0000
    560 H         202.5060  159.1068   87.2982 H        36        0    0.0000
    561 C         205.9565  160.6824   87.9003 C.3      37        0    0.0000
    562 C         204.6951  159.8262   88.0373 C.3      37        0    0.0000
    563 C         203.8760  160.4310   89.1917 C.3      37        0    0.0000
    564 C         202.3806  160.5849   88.8880 C.3      37        0    0.0000
    565 C         204.5544  161.7744   89.4785 C.3      37        0    0.0000
    566 C         206.0364  161.5309   89.1740 C.3      37        0    0.0000
    567 C         206.7648  160.8201   90.3303 C.3      37        0    0.0000
    568 H         206.8461  160.0712   87.7203 H        37        0    0.0000
    569 H         205.8410  161.3452   87.0331 H        37        0    0.0000
    570 H         204.1472  159.8115   87.0887 H        37        0    0.0000
    571 H         204.9616  158.7894   88.2735 H        37        0    0.0000
    572 H         204.0009  159.7899   90.0760 H        37        0    0.0000
    573 H         201.8276  160.6874   89.8293 H        37        0    0.0000
    574 H         202.1991  161.4994   88.3117 H        37        0    0.0000
    575 H         204.3810  162.1101   90.5061 H        37        0    0.0000
    576 H         204.1654  162.5500   88.8062 H        37        0    0.0000
    577 H         206.5309  162.4879   88.9642 H        37        0    0.0000
    578 H         206.7558  159.7329   90.1949 H        37        0    0.0000
    579 H         206.2428  161.0282   91.2719 H        37        0    0.0000
    580 C         209.2580  164.5342   92.1778 C.3      38        0    0.0000
    581 C         208.5722  163.1779   92.2371 C.3      38        0    0.0000
    582 C         208.3793  162.8089   90.7608 C.3      38        0    0.0000
    583 C         208.2354  161.3089   90.4738 C.3      38        0    0.0000
    584 C         209.5163  163.5221   90.0005 C.3      38        0    0.0000
    585 C         210.2759  164.3545   91.0497 C.3      38        0    0.0000
    586 C         210.8128  165.6935   90.5380 C.3      38        0    0.0000
    587 H         208.5301  165.3174   91.9332 H        38        0    0.0000
    588 H         209.7348  164.7941   93.1279 H        38        0    0.0000
    589 H         209.2174  162.4640   92.7606 H        38        0    0.0000
    590 H         207.6199  163.2248   92.7746 H        38        0    0.0000
    591 H         207.4399  163.2783   90.4325 H        38        0    0.0000
    592 H         208.7762  161.0699   89.5504 H        38        0    0.0000
    593 H         208.7205  160.7422   91.2775 H        38        0    0.0000
    594 H         209.0795  164.1638   89.2253 H        38        0    0.0000
    595 H         210.1946  162.8284   89.4926 H        38        0    0.0000
    596 H         211.1094  163.7471   91.4315 H        38        0    0.0000
    597 H         210.0257  166.2364   90.0013 H        38        0    0.0000
    598 H         211.1000  166.3188   91.3918 H        38        0    0.0000
    599 C         213.6512  162.4500   88.0535 C.3      39        0    0.0000
    600 C         213.7631  163.7344   88.8628 C.3      39        0    0.0000
    601 C         212.2998  164.0839   89.1533 C.3      39        0    0.0000
    602 C         212.0454  165.5249   89.6060 C.3      39        0    0.0000
    603 C         211.5190  163.6324   87.9035 C.3      39        0    0.0000
    604 C         212.4910  162.7481   87.0981 C.3      39        0    0.0000
    605 C         211.8648  161.5244   86.4223 C.3      39        0    0.0000
    606 H         214.5776  162.2227   87.5171 H        39        0    0.0000
    607 H         213.4298  161.6100   88.7211 H        39        0    0.0000
    608 H         214.3414  163.5902   89.7807 H        39        0    0.0000
    609 H         214.2603  164.5063   88.2651 H        39        0    0.0000
    610 H         211.9750  163.4346   89.9804 H        39        0    0.0000
    611 H         212.9348  165.8987   90.1272 H        39        0    0.0000
    612 H         211.9082  166.1593   88.7223 H        39        0    0.0000
    613 H         211.1875  164.4715   87.2825 H        39        0    0.0000
    614 H         210.6131  163.0988   88.2109 H        39        0    0.0000
    615 H         212.8959  163.3775   86.2913 H        39        0    0.0000
    616 H         212.4530  161.2659   85.5338 H        39        0    0.0000
    617 H         211.9290  160.6671   87.1029 H        39        0    0.0000
    618 C         207.8714  164.0517   87.4287 C.3      40        0    0.0000
    619 C         208.3479  163.2995   86.1837 C.3      40        0    0.0000
    620 C         209.8704  163.1266   86.3297 C.3      40        0    0.0000
    621 C         210.3775  161.7175   85.9994 C.3      40        0    0.0000
    622 C         210.1629  163.5271   87.7793 C.3      40        0    0.0000
    623 C         209.1313  164.6155   88.0945 C.3      40        0    0.0000
    624 C         209.5432  165.9932   87.5418 C.3      40        0    0.0000
    625 H         207.1234  164.8118   87.1840 H        40        0    0.0000
    626 H         207.3928  163.3376   88.1111 H        40        0    0.0000
    627 H         207.8176  162.3448   86.0967 H        40        0    0.0000
    628 H         208.1241  163.8778   85.2796 H        40        0    0.0000
    629 H         210.3649  163.8527   85.6687 H        40        0    0.0000
    630 H         209.7660  160.9778   86.5299 H        40        0    0.0000
    631 H         210.2667  161.5119   84.9284 H        40        0    0.0000
    632 H         211.1949  163.8686   87.9101 H        40        0    0.0000
    633 H         210.0092  162.6720   88.4503 H        40        0    0.0000
    634 H         208.9900  164.6851   89.1806 H        40        0    0.0000
    635 H         209.9279  165.9105   86.5193 H        40        0    0.0000
    636 H         210.3543  166.4036   88.1551 H        40        0    0.0000
    637 C         208.2431  168.7752   84.3078 C.3      41        0    0.0000
    638 C         209.0534  167.8678   85.2369 C.3      41        0    0.0000
    639 C         208.6314  168.2206   86.6745 C.3      41        0    0.0000
    640 C         208.3592  167.0029   87.5663 C.3      41        0    0.0000
    641 C         207.3932  169.1063   86.5027 C.3      41        0    0.0000
    642 C         207.6428  169.8693   85.1973 C.3      41        0    0.0000
    643 C         208.5822  171.0746   85.3919 C.3      41        0    0.0000
    644 H         208.8505  169.1603   83.4832 H        41        0    0.0000
    645 H         207.4302  168.1881   83.8616 H        41        0    0.0000
    646 H         208.8723  166.8169   84.9859 H        41        0    0.0000
    647 H         210.1265  168.0512   85.1085 H        41        0    0.0000
    648 H         209.4265  168.8297   87.1277 H        41        0    0.0000
    649 H         208.2076  167.3363   88.5998 H        41        0    0.0000
    650 H         207.4362  166.4997   87.2561 H        41        0    0.0000
    651 H         207.2411  169.7694   87.3604 H        41        0    0.0000
    652 H         206.4925  168.4876   86.3982 H        41        0    0.0000
    653 H         206.6865  170.2145   84.7843 H        41        0    0.0000
    654 H         208.7706  171.5869   84.4419 H        41        0    0.0000
    655 H         209.5526  170.7236   85.7624 H        41        0    0.0000
    656 C         205.7637  171.5814   89.2783 C.3      42        0    0.0000
    657 C         206.1919  172.5286   88.1584 C.3      42        0    0.0000
    658 C         206.6562  171.6454   86.9874 C.3      42        0    0.0000
    659 C         208.0104  172.0923   86.4210 C.3      42        0    0.0000
    660 C         206.6543  170.2160   87.5508 C.3      42        0    0.0000
    661 C         205.5543  170.2153   88.6200 C.3      42        0    0.0000
    662 C         204.1288  170.0651   88.0581 C.3      42        0    0.0000
    663 H         206.5770  171.5083   90.0115 H        42        0    0.0000
    664 H         204.8802  171.9469   89.8111 H        42        0    0.0000
    665 H         206.9717  173.2114   88.5130 H        42        0    0.0000
    666 H         205.3439  173.1461   87.8394 H        42        0    0.0000
    667 H         205.8976  171.7106   86.1946 H        42        0    0.0000
    668 H         208.7321  172.2416   87.2325 H        42        0    0.0000
    669 H         207.8917  173.0611   85.9209 H        42        0    0.0000
    670 H         206.4943  169.4669   86.7692 H        42        0    0.0000
    671 H         207.6180  169.9931   88.0272 H        42        0    0.0000
    672 H         205.7397  169.4196   89.3528 H        42        0    0.0000
    673 H         204.0804  170.3758   87.0089 H        42        0    0.0000
    674 H         203.4511  170.7261   88.6120 H        42        0    0.0000
    675 C         203.5980  168.6099   88.1937 C.3      43        0    0.0000
    676 C         202.0752  168.4846   88.0421 C.3      43        0    0.0000
    677 H         204.0690  168.0250   87.3933 H        43        0    0.0000
    678 H         203.9414  168.1781   89.1411 H        43        0    0.0000
    679 H         201.5491  169.1465   88.7400 H        43        0    0.0000
    680 H         201.8053  168.8162   87.0313 H        43        0    0.0000
    681 C         197.7466  167.2744   88.2649 C.3      44        0    0.0000
    682 C         199.1183  167.9196   88.4054 C.3      44        0    0.0000
    683 C         200.0583  166.8508   87.8383 C.3      44        0    0.0000
    684 C         201.5380  167.0196   88.1965 C.3      44        0    0.0000
    685 C         199.4277  165.5024   88.2378 C.3      44        0    0.0000
    686 C         197.9998  165.8319   88.7152 C.3      44        0    0.0000
    687 C         196.9206  164.8201   88.3177 C.3      44        0    0.0000
    688 H         196.9949  167.7728   88.8848 H        44        0    0.0000
    689 H         197.4174  167.3286   87.2214 H        44        0    0.0000
    690 H         199.1855  168.8616   87.8525 H        44        0    0.0000
    691 H         199.3221  168.1294   89.4612 H        44        0    0.0000
    692 H         199.9927  166.9177   86.7418 H        44        0    0.0000
    693 H         201.6952  166.6940   89.2316 H        44        0    0.0000
    694 H         202.1381  166.3559   87.5629 H        44        0    0.0000
    695 H         199.9750  164.9978   89.0413 H        44        0    0.0000
    696 H         199.4433  164.8224   87.3792 H        44        0    0.0000
    697 H         198.0288  165.8416   89.8153 H        44        0    0.0000
    698 H         197.3849  164.0073   87.7467 H        44        0    0.0000
    699 H         196.5013  164.3685   89.2245 H        44        0    0.0000
    700 C         195.3236  169.1518   87.8427 C.3      45        0    0.0000
    701 C         196.1817  167.8885   87.9495 C.3      45        0    0.0000
    702 C         195.2038  166.7139   88.0846 C.3      45        0    0.0000
    703 C         195.7570  165.4230   87.4746 C.3      45        0    0.0000
    704 C         193.9306  167.2420   87.4152 C.3      45        0    0.0000
    705 C         193.8630  168.6880   87.9176 C.3      45        0    0.0000
    706 C         192.9221  169.5967   87.1216 C.3      45        0    0.0000
    707 H         195.5524  169.8602   88.6461 H        45        0    0.0000
    708 H         195.5357  169.6579   86.8932 H        45        0    0.0000
    709 H         196.8591  167.9364   88.8089 H        45        0    0.0000
    710 H         196.8030  167.7921   87.0511 H        45        0    0.0000
    711 H         194.9995  166.5594   89.1542 H        45        0    0.0000
    712 H         196.1296  165.6306   86.4644 H        45        0    0.0000
    713 H         194.9585  164.6790   87.3703 H        45        0    0.0000
    714 H         193.0465  166.6660   87.7064 H        45        0    0.0000
    715 H         194.0191  167.2096   86.3220 H        45        0    0.0000
    716 H         193.5605  168.6781   88.9750 H        45        0    0.0000
    717 H         193.4872  170.1717   86.3788 H        45        0    0.0000
    718 H         192.4612  170.3240   87.8006 H        45        0    0.0000
    719 C         188.6655  169.2304   88.5037 C.3      46        0    0.0000
    720 C         190.1133  169.5969   88.2154 C.3      46        0    0.0000
    721 C         190.5970  168.4593   87.3072 C.3      46        0    0.0000
    722 C         191.7936  168.8008   86.4103 C.3      46        0    0.0000
    723 C         189.3409  167.9513   86.5700 C.3      46        0    0.0000
    724 C         188.1561  168.7502   87.1432 C.3      46        0    0.0000
    725 C         186.8496  167.9615   87.2617 C.3      46        0    0.0000
    726 H         188.6183  168.4279   89.2498 H        46        0    0.0000
    727 H         188.0943  170.0839   88.8817 H        46        0    0.0000
    728 H         190.1517  170.5703   87.7145 H        46        0    0.0000
    729 H         190.7068  169.6687   89.1322 H        46        0    0.0000
    730 H         190.9268  167.6414   87.9650 H        46        0    0.0000
    731 H         192.2172  167.8708   86.0128 H        46        0    0.0000
    732 H         191.4414  169.3792   85.5479 H        46        0    0.0000
    733 H         189.2248  166.8772   86.7612 H        46        0    0.0000
    734 H         189.4010  168.0749   85.4835 H        46        0    0.0000
    735 H         187.9957  169.6314   86.5050 H        46        0    0.0000
    736 H         186.8404  167.1345   86.5417 H        46        0    0.0000
    737 H         186.7878  167.5107   88.2593 H        46        0    0.0000
    738 C         182.4666  166.6965   86.8782 C.3      47        0    0.0000
    739 C         183.9584  166.8818   86.6380 C.3      47        0    0.0000
    740 C         184.2698  168.1727   87.4024 C.3      47        0    0.0000
    741 C         185.5941  168.8501   87.0368 C.3      47        0    0.0000
    742 C         183.0109  169.0486   87.2494 C.3      47        0    0.0000
    743 C         181.9135  168.1146   86.7029 C.3      47        0    0.0000
    744 C         180.5082  168.3465   87.2664 C.3      47        0    0.0000
    745 H         182.0228  165.9914   86.1685 H        47        0    0.0000
    746 H         182.2998  166.3112   87.8901 H        47        0    0.0000
    747 H         184.5408  166.0331   87.0096 H        47        0    0.0000
    748 H         184.1506  166.9822   85.5641 H        47        0    0.0000
    749 H         184.3400  167.9037   88.4672 H        47        0    0.0000
    750 H         185.5618  169.1543   85.9839 H        47        0    0.0000
    751 H         185.7020  169.7679   87.6268 H        47        0    0.0000
    752 H         183.1564  169.8860   86.5585 H        47        0    0.0000
    753 H         182.7515  169.4891   88.2182 H        47        0    0.0000
    754 H         181.8506  168.3008   85.6201 H        47        0    0.0000
    755 H         179.8254  168.5799   86.4408 H        47        0    0.0000
    756 H         180.1464  167.4166   87.7209 H        47        0    0.0000
    757 C         178.5017  168.8497   91.5269 C.3      48        0    0.0000
    758 C         179.4639  168.3636   90.4538 C.3      48        0    0.0000
    759 C         179.2495  169.3560   89.3040 C.3      48        0    0.0000
    760 C         180.4226  169.4872   88.3244 C.3      48        0    0.0000
    761 C         178.7914  170.6710   89.9679 C.3      48        0    0.0000
    762 C         178.6674  170.3698   91.4727 C.3      48        0    0.0000
    763 C         177.5233  171.1006   92.1797 C.3      48        0    0.0000
    764 H         177.4751  168.5542   91.2785 H        48        0    0.0000
    765 H         178.7469  168.4415   92.5122 H        48        0    0.0000
    766 H         180.4885  168.3937   90.8399 H        48        0    0.0000
    767 H         179.2508  167.3339   90.1501 H        48        0    0.0000
    768 H         178.3955  168.9873   88.7165 H        48        0    0.0000
    769 H         180.3426  170.4469   87.8000 H        48        0    0.0000
    770 H         181.3609  169.5163   88.8910 H        48        0    0.0000
    771 H         177.8250  170.9681   89.5417 H        48        0    0.0000
    772 H         179.4827  171.5026   89.7958 H        48        0    0.0000
    773 H         179.6214  170.6295   91.9543 H        48        0    0.0000
    774 H         177.1955  170.5308   93.0573 H        48        0    0.0000
    775 H         177.8847  172.0675   92.5495 H        48        0    0.0000
    776 C         174.6603  174.0898   91.9873 C.3      49        0    0.0000
    777 C         175.1796  172.9464   92.8632 C.3      49        0    0.0000
    778 C         175.0251  171.6618   92.0417 C.3      49        0    0.0000
    779 C         176.3056  171.3472   91.2454 C.3      49        0    0.0000
    780 C         173.8002  171.9801   91.1749 C.3      49        0    0.0000
    781 C         173.9968  173.4408   90.7612 C.3      49        0    0.0000
    782 C         172.6862  174.1041   90.3229 C.3      49        0    0.0000
    783 H         173.9622  174.7087   92.5624 H        49        0    0.0000
    784 H         175.4852  174.7388   91.6718 H        49        0    0.0000
    785 H         174.5546  172.8783   93.7626 H        49        0    0.0000
    786 H         176.2063  173.1230   93.1996 H        49        0    0.0000
    787 H         174.8043  170.8183   92.7084 H        49        0    0.0000
    788 H         176.5405  172.1955   90.5911 H        49        0    0.0000
    789 H         176.1644  170.4792   90.5926 H        49        0    0.0000
    790 H         172.8900  171.8754   91.7799 H        49        0    0.0000
    791 H         173.6944  171.3216   90.3077 H        49        0    0.0000
    792 H         174.7096  173.4714   89.9252 H        49        0    0.0000
    793 H         172.6290  174.1497   89.2292 H        49        0    0.0000
    794 H         172.6624  175.1384   90.6860 H        49        0    0.0000
    795 C         171.4429  173.3513   90.8778 C.3      50        0    0.0000
    796 C         170.1010  173.9450   90.4259 C.3      50        0    0.0000
    797 H         171.5029  172.3214   90.5033 H        50        0    0.0000
    798 H         171.5047  173.2914   91.9708 H        50        0    0.0000
    799 H         169.3522  173.8922   91.2248 H        50        0    0.0000
    800 H         170.2553  175.0101   90.2104 H        50        0    0.0000
    801 C         166.6953  175.2961   87.5870 C.3      51        0    0.0000
    802 C         167.9508  175.2417   88.4440 C.3      51        0    0.0000
    803 C         168.1041  173.7487   88.7609 C.3      51        0    0.0000
    804 C         169.5258  173.2976   89.1187 C.3      51        0    0.0000
    805 C         167.4504  173.0023   87.5798 C.3      51        0    0.0000
    806 C         166.8589  174.0882   86.6623 C.3      51        0    0.0000
    807 C         165.5449  173.7025   85.9786 C.3      51        0    0.0000
    808 H         165.8019  175.1954   88.2154 H        51        0    0.0000
    809 H         166.6192  176.2356   87.0311 H        51        0    0.0000
    810 H         168.8005  175.6324   87.8737 H        51        0    0.0000
    811 H         167.8519  175.8444   89.3523 H        51        0    0.0000
    812 H         167.4823  173.5426   89.6449 H        51        0    0.0000
    813 H         169.5345  172.2071   89.2342 H        51        0    0.0000
    814 H         170.1965  173.5302   88.2830 H        51        0    0.0000
    815 H         166.6663  172.3395   87.9666 H        51        0    0.0000
    816 H         168.1548  172.3713   87.0277 H        51        0    0.0000
    817 H         167.6099  174.3384   85.8987 H        51        0    0.0000
    818 H         165.5927  173.9359   84.9083 H        51        0    0.0000
    819 H         165.3996  172.6186   86.0580 H        51        0    0.0000
    820 C         163.0089  174.7894   83.6149 C.3      52        0    0.0000
    821 C         164.2231  175.4405   84.2829 C.3      52        0    0.0000
    822 C         163.8620  175.6248   85.7609 C.3      52        0    0.0000
    823 C         164.3147  174.4180   86.6042 C.3      52        0    0.0000
    824 C         162.3420  175.8216   85.6981 C.3      52        0    0.0000
    825 C         161.8712  174.8111   84.6491 C.3      52        0    0.0000
    826 C         160.4959  175.1668   84.0729 C.3      52        0    0.0000
    827 H         162.7531  175.3353   82.6997 H        52        0    0.0000
    828 H         163.2363  173.7573   83.3243 H        52        0    0.0000
    829 H         164.3927  176.4238   83.8262 H        52        0    0.0000
    830 H         165.1358  174.8554   84.1311 H        52        0    0.0000
    831 H         164.3421  176.5316   86.1507 H        52        0    0.0000
    832 H         163.4926  173.6950   86.6689 H        52        0    0.0000
    833 H         164.5493  174.7167   87.6315 H        52        0    0.0000
    834 H         162.1215  176.8447   85.3665 H        52        0    0.0000
    835 H         161.8413  175.6741   86.6597 H        52        0    0.0000
    836 H         161.8148  173.8208   85.1225 H        52        0    0.0000
    837 H         159.7167  174.5526   84.5390 H        52        0    0.0000
    838 H         160.4808  174.9397   83.0004 H        52        0    0.0000
    839 C         160.1582  176.6726   84.2694 C.3      53        0    0.0000
    840 C         158.7533  177.0646   83.7899 C.3      53        0    0.0000
    841 H         160.8897  177.2408   83.6805 H        53        0    0.0000
    842 H         160.3145  176.9526   85.3177 H        53        0    0.0000
    843 H         158.7034  176.8948   82.7068 H        53        0    0.0000
    844 H         157.9849  176.4270   84.2428 H        53        0    0.0000
    845 C         158.3393  180.2701   80.6594 C.3      54        0    0.0000
    846 C         158.1332  179.0535   81.5487 C.3      54        0    0.0000
    847 C         158.8104  179.4666   82.8570 C.3      54        0    0.0000
    848 C         158.3964  178.5727   84.0285 C.3      54        0    0.0000
    849 C         158.4301  180.9504   83.0134 C.3      54        0    0.0000
    850 C         158.0690  181.4514   81.5998 C.3      54        0    0.0000
    851 C         158.7168  182.7792   81.1868 C.3      54        0    0.0000
    852 H         157.6610  180.2679   79.8004 H        54        0    0.0000
    853 H         159.3653  180.2737   80.2759 H        54        0    0.0000
    854 H         157.0623  178.8694   81.6982 H        54        0    0.0000
    855 H         158.5793  178.1515   81.1186 H        54        0    0.0000
    856 H         159.8993  179.4047   82.7156 H        54        0    0.0000
    857 H         158.8755  178.9153   84.9534 H        54        0    0.0000
    858 H         157.3144  178.6579   84.1845 H        54        0    0.0000
    859 H         157.5576  181.0695   83.6678 H        54        0    0.0000
    860 H         159.2496  181.5132   83.4724 H        54        0    0.0000
    861 H         156.9822  181.6229   81.5960 H        54        0    0.0000
    862 H         158.4286  183.0126   80.1550 H        54        0    0.0000
    863 H         159.8067  182.6590   81.1888 H        54        0    0.0000
    864 C         156.7752  183.2376   85.4624 C.3      55        0    0.0000
    865 C         157.7845  182.8913   84.3785 C.3      55        0    0.0000
    866 C         157.2838  183.6751   83.1587 C.3      55        0    0.0000
    867 C         158.3472  183.9851   82.0975 C.3      55        0    0.0000
    868 C         156.5392  184.9006   83.7273 C.3      55        0    0.0000
    869 C         156.5544  184.7379   85.2583 C.3      55        0    0.0000
    870 C         155.2933  185.2373   85.9677 C.3      55        0    0.0000
    871 H         155.8456  182.6762   85.3090 H        55        0    0.0000
    872 H         157.1535  183.0073   86.4631 H        55        0    0.0000
    873 H         158.7839  183.2109   84.6932 H        55        0    0.0000
    874 H         157.8230  181.8147   84.1850 H        55        0    0.0000
    875 H         156.5260  183.0495   82.6639 H        55        0    0.0000
    876 H         157.9894  184.8060   81.4646 H        55        0    0.0000
    877 H         159.2555  184.3452   82.5951 H        55        0    0.0000
    878 H         155.5131  184.9065   83.3391 H        55        0    0.0000
    879 H         156.9939  185.8531   83.4354 H        55        0    0.0000
    880 H         157.4319  185.2716   85.6514 H        55        0    0.0000
    881 H         154.7541  184.3955   86.4180 H        55        0    0.0000
    882 H         155.5801  185.9033   86.7903 H        55        0    0.0000
    883 C         154.3371  186.0062   85.0133 C.3      56        0    0.0000
    884 C         153.0474  186.4981   85.6856 C.3      56        0    0.0000
    885 H         154.0592  185.3081   84.2133 H        56        0    0.0000
    886 H         154.8775  186.8316   84.5351 H        56        0    0.0000
    887 H         152.4884  185.6199   86.0332 H        56        0    0.0000
    888 H         153.2660  187.1022   86.5740 H        56        0    0.0000
    889 C         153.8987  188.7169   81.8159 C.3      57        0    0.0000
    890 C         154.0161  187.9776   83.1510 C.3      57        0    0.0000
    891 C         152.8257  188.4343   84.0132 C.3      57        0    0.0000
    892 C         152.0928  187.2925   84.7283 C.3      57        0    0.0000
    893 C         151.9169  189.1913   83.0393 C.3      57        0    0.0000
    894 C         152.8792  189.8394   82.0382 C.3      57        0    0.0000
    895 C         153.5126  191.1329   82.5851 C.3      57        0    0.0000
    896 H         154.8712  189.0681   81.4578 H        57        0    0.0000
    897 H         153.5097  188.0222   81.0605 H        57        0    0.0000
    898 H         154.0277  186.8954   82.9804 H        57        0    0.0000
    899 H         154.9576  188.2370   83.6492 H        57        0    0.0000
    900 H         153.1959  189.1502   84.7609 H        57        0    0.0000
    901 H         151.2691  187.7056   85.3225 H        57        0    0.0000
    902 H         151.6458  186.6079   83.9983 H        57        0    0.0000
    903 H         151.2828  189.9210   83.5532 H        57        0    0.0000
    904 H         151.2561  188.4917   82.5112 H        57        0    0.0000
    905 H         152.3457  190.0603   81.1051 H        57        0    0.0000
    906 H         154.3249  191.4804   81.9373 H        57        0    0.0000
    907 H         153.9528  190.9345   83.5695 H        57        0    0.0000
    908 C         152.4603  192.2682   82.7453 C.3      58        0    0.0000
    909 C         151.7565  192.2785   84.1098 C.3      58        0    0.0000
    910 H         152.9992  193.2178   82.6330 H        58        0    0.0000
    911 H         151.7364  192.2197   81.9234 H        58        0    0.0000
    912 H         152.3833  191.8232   84.8855 H        58        0    0.0000
    913 H         151.6019  193.3242   84.4052 H        58        0    0.0000
    914 C         148.0075  189.4881   83.1700 C.3      59        0    0.0000
    915 C         149.4536  189.2689   83.6229 C.3      59        0    0.0000
    916 C         150.2655  190.4494   83.0787 C.3      59        0    0.0000
    917 C         150.3446  191.5964   84.1036 C.3      59        0    0.0000
    918 C         149.5042  190.7974   81.7932 C.3      59        0    0.0000
    919 C         148.0286  190.6621   82.1772 C.3      59        0    0.0000
    920 C         147.1226  190.4763   80.9547 C.3      59        0    0.0000
    921 H         147.6168  188.5676   82.7215 H        59        0    0.0000
    922 H         147.3676  189.7285   84.0267 H        59        0    0.0000
    923 H         149.8260  188.3375   83.1779 H        59        0    0.0000
    924 H         149.5292  189.1571   84.7093 H        59        0    0.0000
    925 H         151.2835  190.1194   82.8344 H        59        0    0.0000
    926 H         150.1512  191.1973   85.1067 H        59        0    0.0000
    927 H         149.5747  192.3521   83.9144 H        59        0    0.0000
    928 H         149.7617  190.0716   81.0107 H        59        0    0.0000
    929 H         149.7345  191.7937   81.4041 H        59        0    0.0000
    930 H         147.7246  191.5730   82.7119 H        59        0    0.0000
    931 H         146.0759  190.3830   81.2665 H        59        0    0.0000
    932 H         147.3869  189.5426   80.4443 H        59        0    0.0000
    933 C         144.9038  194.4789   80.8446 C.3      60        0    0.0000
    934 C         145.6580  193.2204   81.2456 C.3      60        0    0.0000
    935 C         146.0524  192.5953   79.9015 C.3      60        0    0.0000
    936 C         147.2623  191.6533   79.9469 C.3      60        0    0.0000
    937 C         146.1672  193.7727   78.9115 C.3      60        0    0.0000
    938 C         145.7462  195.0309   79.6928 C.3      60        0    0.0000
    939 C         144.9848  196.0716   78.8680 C.3      60        0    0.0000
    940 H         143.8915  194.2240   80.5080 H        60        0    0.0000
    941 H         144.8208  195.1884   81.6736 H        60        0    0.0000
    942 H         146.5320  193.4932   81.8467 H        60        0    0.0000
    943 H         145.0378  192.5456   81.8439 H        60        0    0.0000
    944 H         145.1988  191.9868   79.5674 H        60        0    0.0000
    945 H         147.4288  191.2395   78.9452 H        60        0    0.0000
    946 H         148.1580  192.2326   80.2003 H        60        0    0.0000
    947 H         145.4977  193.5909   78.0616 H        60        0    0.0000
    948 H         147.1753  193.8920   78.5009 H        60        0    0.0000
    949 H         146.6510  195.4900   80.1171 H        60        0    0.0000
    950 H         144.3432  195.5744   78.1309 H        60        0    0.0000
    951 H         144.3212  196.6424   79.5285 H        60        0    0.0000
    952 C         148.5087  195.2725   76.0409 C.3      61        0    0.0000
    953 C         147.1957  195.2792   76.8282 C.3      61        0    0.0000
    954 C         147.2975  196.4409   77.8253 C.3      61        0    0.0000
    955 C         145.9330  197.0624   78.1361 C.3      61        0    0.0000
    956 C         148.2936  197.3912   77.1525 C.3      61        0    0.0000
    957 C         149.3492  196.4303   76.5952 C.3      61        0    0.0000
    958 C         150.2708  197.0400   75.5354 C.3      61        0    0.0000
    959 H         149.0352  194.3181   76.1490 H        61        0    0.0000
    960 H         148.2952  195.4067   74.9737 H        61        0    0.0000
    961 H         147.0358  194.3284   77.3479 H        61        0    0.0000
    962 H         146.3560  195.4166   76.1364 H        61        0    0.0000
    963 H         147.7491  196.0582   78.7523 H        61        0    0.0000
    964 H         145.4557  197.3745   77.1995 H        61        0    0.0000
    965 H         146.0564  197.9661   78.7443 H        61        0    0.0000
    966 H         148.7238  198.1034   77.8638 H        61        0    0.0000
    967 H         147.8125  197.9574   76.3452 H        61        0    0.0000
    968 H         149.9510  196.0468   77.4320 H        61        0    0.0000
    969 H         150.3713  196.3595   74.6818 H        61        0    0.0000
    970 H         151.2746  197.1669   75.9583 H        61        0    0.0000
    971 C         149.7662  198.4223   75.0379 C.3      62        0    0.0000
    972 C         150.8798  199.4626   74.8507 C.3      62        0    0.0000
    973 H         149.2903  198.2539   74.0633 H        62        0    0.0000
    974 H         148.9828  198.7931   75.7093 H        62        0    0.0000
    975 H         151.7280  199.2631   75.5161 H        62        0    0.0000
    976 H         151.2588  199.3747   73.8244 H        62        0    0.0000
    977 C         152.2667  203.4199   77.0013 C.3      63        0    0.0000
    978 C         152.1410  201.9482   76.6103 C.3      63        0    0.0000
    979 C         151.5806  201.9188   75.1778 C.3      63        0    0.0000
    980 C         150.4035  200.9454   75.0318 C.3      63        0    0.0000
    981 C         151.2262  203.3811   74.8664 C.3      63        0    0.0000
    982 C         152.2175  204.2112   75.6917 C.3      63        0    0.0000
    983 C         153.6122  204.3455   75.0536 C.3      63        0    0.0000
    984 H         151.4056  203.6966   77.6231 H        63        0    0.0000
    985 H         153.1675  203.6132   77.5922 H        63        0    0.0000
    986 H         151.5070  201.4153   77.3273 H        63        0    0.0000
    987 H         153.1253  201.4655   76.6300 H        63        0    0.0000
    988 H         152.3910  201.6038   74.5053 H        63        0    0.0000
    989 H         149.7716  201.2362   74.1846 H        63        0    0.0000
    990 H         149.7750  201.0003   75.9289 H        63        0    0.0000
    991 H         151.2741  203.5956   73.7944 H        63        0    0.0000
    992 H         150.2048  203.6049   75.2010 H        63        0    0.0000
    993 H         151.8081  205.2119   75.8798 H        63        0    0.0000
    994 H         154.0684  203.3641   74.8852 H        63        0    0.0000
    995 H         154.2739  204.8844   75.7426 H        63        0    0.0000
    996 C         151.6084  203.4053   70.9943 C.3      64        0    0.0000
    997 C         151.9560  203.6036   72.4720 C.3      64        0    0.0000
    998 C         153.3616  204.2180   72.5051 C.3      64        0    0.0000
    999 C         153.5680  205.1343   73.7143 C.3      64        0    0.0000
   1000 C         153.4671  204.9195   71.1469 C.3      64        0    0.0000
   1001 C         152.8185  203.9080   70.1961 C.3      64        0    0.0000
   1002 C         152.4197  204.4790   68.8324 C.3      64        0    0.0000
   1003 H         151.3993  202.3538   70.7700 H        64        0    0.0000
   1004 H         150.7033  203.9753   70.7526 H        64        0    0.0000
   1005 H         151.9287  202.6558   73.0203 H        64        0    0.0000
   1006 H         151.2166  204.2681   72.9349 H        64        0    0.0000
   1007 H         154.0935  203.3976   72.5338 H        64        0    0.0000
   1008 H         152.7467  205.8592   73.7635 H        64        0    0.0000
   1009 H         154.4928  205.7119   73.6003 H        64        0    0.0000
   1010 H         154.5063  205.1289   70.8743 H        64        0    0.0000
   1011 H         152.9134  205.8668   71.1500 H        64        0    0.0000
   1012 H         153.5105  203.0649   70.0557 H        64        0    0.0000
   1013 H         151.4199  204.9256   68.8848 H        64        0    0.0000
   1014 H         152.3637  203.6638   68.1010 H        64        0    0.0000
   1015 C         153.4324  205.5375   68.3159 C.3      65        0    0.0000
   1016 C         153.6777  205.4792   66.8014 C.3      65        0    0.0000
   1017 H         154.3851  205.3383   68.8230 H        65        0    0.0000
   1018 H         153.1134  206.5382   68.6301 H        65        0    0.0000
   1019 H         153.8975  204.4382   66.5319 H        65        0    0.0000
   1020 H         152.7802  205.7652   66.2406 H        65        0    0.0000
   1021 C         155.0616  207.4164   69.8673 C.3      66        0    0.0000
   1022 C         154.4018  207.6231   68.5018 C.3      66        0    0.0000
   1023 C         155.4468  207.2265   67.4435 C.3      66        0    0.0000
   1024 C         154.8978  206.3385   66.3200 C.3      66        0    0.0000
   1025 C         156.5569  206.5366   68.2428 C.3      66        0    0.0000
   1026 C         156.5613  207.2552   69.5963 C.3      66        0    0.0000
   1027 C         157.3153  208.5975   69.5464 C.3      66        0    0.0000
   1028 H         154.8230  208.2275   70.5619 H        66        0    0.0000
   1029 H         154.6744  206.4897   70.3100 H        66        0    0.0000
   1030 H         153.4829  207.0300   68.4358 H        66        0    0.0000
   1031 H         154.1190  208.6741   68.3699 H        66        0    0.0000
   1032 H         155.8617  208.1463   67.0069 H        66        0    0.0000
   1033 H         154.5709  206.9698   65.4851 H        66        0    0.0000
   1034 H         155.6846  205.6813   65.9323 H        66        0    0.0000
   1035 H         157.5233  206.5881   67.7309 H        66        0    0.0000
   1036 H         156.3171  205.4759   68.3925 H        66        0    0.0000
   1037 H         157.0185  206.6075   70.3552 H        66        0    0.0000
   1038 H         156.7706  209.3354   68.9469 H        66        0    0.0000
   1039 H         158.2886  208.4506   69.0633 H        66        0    0.0000
   1040 H         157.4894  209.0011   70.5439 H        66        0    0.0000
   1041 H          70.3096  141.0486   86.7445 H         0        0    0.0000
@<TRIPOS>BOND
     1     1     2      1
     2     1     6      1
     3     1     8      1
     4     1     9      1
     5     2     3      1
     6     2    10      1
     7     2    11      1
     8     3     4      1
     9     3     5      1
    10     3    12      1
    11     4    13      1
    12     4    14      1
    13     4  1041      H
    14     5     6      1
    15     5    15      1
    16     5    16      1
    17     6     7      1
    18     6    17      1
    19     7    18      1
    20     7    19      1
    21     7    23      1
    22    20    21      1
    23    20    25      1
    24    20    27      1
    25    20    28      1
    26    21    22      1
    27    21    29      1
    28    21    30      1
    29    22    23      1
    30    22    24      1
    31    22    31      1
    32    23    32      1
    33    23    33      1
    34    24    25      1
    35    24    34      1
    36    24    35      1
    37    25    26      1
    38    25    36      1
    39    26    37      1
    40    26    38      1
    41    26    39      1
    42    39    40      1
    43    39    41      1
    44    39    42      1
    45    40    43      1
    46    40    44      1
    47    40    48      1
    48    45    46      1
    49    45    50      1
    50    45    52      1
    51    45    53      1
    52    46    47      1
    53    46    54      1
    54    46    55      1
    55    47    48      1
    56    47    49      1
    57    47    56      1
    58    48    57      1
    59    48    58      1
    60    49    50      1
    61    49    59      1
    62    49    60      1
    63    50    51      1
    64    50    61      1
    65    51    62      1
    66    51    63      1
    67    51    64      1
    68    64    65      1
    69    64    66      1
    70    64    67      1
    71    65    68      1
    72    65    69      1
    73    65    73      1
    74    70    71      1
    75    70    75      1
    76    70    77      1
    77    70    78      1
    78    71    72      1
    79    71    79      1
    80    71    80      1
    81    72    73      1
    82    72    74      1
    83    72    81      1
    84    73    82      1
    85    73    83      1
    86    74    75      1
    87    74    84      1
    88    74    85      1
    89    75    76      1
    90    75    86      1
    91    76    87      1
    92    76    88      1
    93    76    92      1
    94    89    90      1
    95    89    94      1
    96    89    96      1
    97    89    97      1
    98    90    91      1
    99    90    98      1
   100    90    99      1
   101    91    92      1
   102    91    93      1
   103    91   100      1
   104    92   101      1
   105    92   102      1
   106    93    94      1
   107    93   103      1
   108    93   104      1
   109    94    95      1
   110    94   105      1
   111    95   106      1
   112    95   107      1
   113    95   108      1
   114   108   109      1
   115   108   110      1
   116   108   111      1
   117   109   112      1
   118   109   113      1
   119   109   114      1
   120   114   115      1
   121   114   116      1
   122   114   117      1
   123   115   118      1
   124   115   119      1
   125   115   120      1
   126   120   121      1
   127   120   122      1
   128   120   123      1
   129   121   124      1
   130   121   125      1
   131   121   126      1
   132   126   127      1
   133   126   128      1
   134   126   129      1
   135   127   130      1
   136   127   131      1
   137   127   135      1
   138   132   133      1
   139   132   137      1
   140   132   139      1
   141   132   140      1
   142   133   134      1
   143   133   141      1
   144   133   142      1
   145   134   135      1
   146   134   136      1
   147   134   143      1
   148   135   144      1
   149   135   145      1
   150   136   137      1
   151   136   146      1
   152   136   147      1
   153   137   138      1
   154   137   148      1
   155   138   149      1
   156   138   150      1
   157   138   154      1
   158   151   152      1
   159   151   156      1
   160   151   158      1
   161   151   159      1
   162   152   153      1
   163   152   160      1
   164   152   161      1
   165   153   154      1
   166   153   155      1
   167   153   162      1
   168   154   163      1
   169   154   164      1
   170   155   156      1
   171   155   165      1
   172   155   166      1
   173   156   157      1
   174   156   167      1
   175   157   168      1
   176   157   169      1
   177   157   170      1
   178   170   171      1
   179   170   172      1
   180   170   173      1
   181   171   174      1
   182   171   175      1
   183   171   179      1
   184   176   177      1
   185   176   181      1
   186   176   183      1
   187   176   184      1
   188   177   178      1
   189   177   185      1
   190   177   186      1
   191   178   179      1
   192   178   180      1
   193   178   187      1
   194   179   188      1
   195   179   189      1
   196   180   181      1
   197   180   190      1
   198   180   191      1
   199   181   182      1
   200   181   192      1
   201   182   193      1
   202   182   194      1
   203   182   195      1
   204   195   196      1
   205   195   197      1
   206   195   198      1
   207   196   199      1
   208   196   200      1
   209   196   204      1
   210   201   202      1
   211   201   206      1
   212   201   208      1
   213   201   209      1
   214   202   203      1
   215   202   210      1
   216   202   211      1
   217   203   204      1
   218   203   205      1
   219   203   212      1
   220   204   213      1
   221   204   214      1
   222   205   206      1
   223   205   215      1
   224   205   216      1
   225   206   207      1
   226   206   217      1
   227   207   218      1
   228   207   219      1
   229   207   223      1
   230   220   221      1
   231   220   225      1
   232   220   227      1
   233   220   228      1
   234   221   222      1
   235   221   229      1
   236   221   230      1
   237   222   223      1
   238   222   224      1
   239   222   231      1
   240   223   232      1
   241   223   233      1
   242   224   225      1
   243   224   234      1
   244   224   235      1
   245   225   226      1
   246   225   236      1
   247   226   237      1
   248   226   238      1
   249   226   242      1
   250   239   240      1
   251   239   244      1
   252   239   246      1
   253   239   247      1
   254   240   241      1
   255   240   248      1
   256   240   249      1
   257   241   242      1
   258   241   243      1
   259   241   250      1
   260   242   251      1
   261   242   252      1
   262   243   244      1
   263   243   253      1
   264   243   254      1
   265   244   245      1
   266   244   255      1
   267   245   256      1
   268   245   257      1
   269   245   261      1
   270   258   259      1
   271   258   263      1
   272   258   265      1
   273   258   266      1
   274   259   260      1
   275   259   267      1
   276   259   268      1
   277   260   261      1
   278   260   262      1
   279   260   269      1
   280   261   270      1
   281   261   271      1
   282   262   263      1
   283   262   272      1
   284   262   273      1
   285   263   264      1
   286   263   274      1
   287   264   275      1
   288   264   276      1
   289   264   277      1
   290   277   278      1
   291   277   279      1
   292   277   280      1
   293   278   281      1
   294   278   282      1
   295   278   286      1
   296   283   284      1
   297   283   288      1
   298   283   290      1
   299   283   291      1
   300   284   285      1
   301   284   292      1
   302   284   293      1
   303   285   286      1
   304   285   287      1
   305   285   294      1
   306   286   295      1
   307   286   296      1
   308   287   288      1
   309   287   297      1
   310   287   298      1
   311   288   289      1
   312   288   299      1
   313   289   300      1
   314   289   301      1
   315   289   305      1
   316   302   303      1
   317   302   307      1
   318   302   309      1
   319   302   310      1
   320   303   304      1
   321   303   311      1
   322   303   312      1
   323   304   305      1
   324   304   306      1
   325   304   313      1
   326   305   314      1
   327   305   315      1
   328   306   307      1
   329   306   316      1
   330   306   317      1
   331   307   308      1
   332   307   318      1
   333   308   319      1
   334   308   320      1
   335   308   324      1
   336   321   322      1
   337   321   326      1
   338   321   328      1
   339   321   329      1
   340   322   323      1
   341   322   330      1
   342   322   331      1
   343   323   324      1
   344   323   325      1
   345   323   332      1
   346   324   333      1
   347   324   334      1
   348   325   326      1
   349   325   335      1
   350   325   336      1
   351   326   327      1
   352   326   337      1
   353   327   338      1
   354   327   339      1
   355   327   343      1
   356   340   341      1
   357   340   345      1
   358   340   347      1
   359   340   348      1
   360   341   342      1
   361   341   349      1
   362   341   350      1
   363   342   343      1
   364   342   344      1
   365   342   351      1
   366   343   352      1
   367   343   353      1
   368   344   345      1
   369   344   354      1
   370   344   355      1
   371   345   346      1
   372   345   356      1
   373   346   357      1
   374   346   358      1
   375   346   362      1
   376   359   360      1
   377   359   364      1
   378   359   366      1
   379   359   367      1
   380   360   361      1
   381   360   368      1
   382   360   369      1
   383   361   362      1
   384   361   363      1
   385   361   370      1
   386   362   371      1
   387   362   372      1
   388   363   364      1
   389   363   373      1
   390   363   374      1
   391   364   365      1
   392   364   375      1
   393   365   376      1
   394   365   377      1
   395   365   381      1
   396   378   379      1
   397   378   383      1
   398   378   385      1
   399   378   386      1
   400   379   380      1
   401   379   387      1
   402   379   388      1
   403   380   381      1
   404   380   382      1
   405   380   389      1
   406   381   390      1
   407   381   391      1
   408   382   383      1
   409   382   392      1
   410   382   393      1
   411   383   384      1
   412   383   394      1
   413   384   395      1
   414   384   396      1
   415   384   397      1
   416   397   398      1
   417   397   399      1
   418   397   400      1
   419   398   401      1
   420   398   402      1
   421   398   406      1
   422   403   404      1
   423   403   408      1
   424   403   410      1
   425   403   411      1
   426   404   405      1
   427   404   412      1
   428   404   413      1
   429   405   406      1
   430   405   407      1
   431   405   414      1
   432   406   415      1
   433   406   416      1
   434   407   408      1
   435   407   417      1
   436   407   418      1
   437   408   409      1
   438   408   419      1
   439   409   420      1
   440   409   421      1
   441   409   425      1
   442   422   423      1
   443   422   427      1
   444   422   429      1
   445   422   430      1
   446   423   424      1
   447   423   431      1
   448   423   432      1
   449   424   425      1
   450   424   426      1
   451   424   433      1
   452   425   434      1
   453   425   435      1
   454   426   427      1
   455   426   436      1
   456   426   437      1
   457   427   428      1
   458   427   438      1
   459   428   439      1
   460   428   440      1
   461   428   444      1
   462   441   442      1
   463   441   446      1
   464   441   448      1
   465   441   449      1
   466   442   443      1
   467   442   450      1
   468   442   451      1
   469   443   444      1
   470   443   445      1
   471   443   452      1
   472   444   453      1
   473   444   454      1
   474   445   446      1
   475   445   455      1
   476   445   456      1
   477   446   447      1
   478   446   457      1
   479   447   458      1
   480   447   459      1
   481   447   463      1
   482   460   461      1
   483   460   465      1
   484   460   467      1
   485   460   468      1
   486   461   462      1
   487   461   469      1
   488   461   470      1
   489   462   463      1
   490   462   464      1
   491   462   471      1
   492   463   472      1
   493   463   473      1
   494   464   465      1
   495   464   474      1
   496   464   475      1
   497   465   466      1
   498   465   476      1
   499   466   477      1
   500   466   478      1
   501   466   479      1
   502   479   480      1
   503   479   481      1
   504   479   482      1
   505   480   483      1
   506   480   484      1
   507   480   488      1
   508   485   486      1
   509   485   490      1
   510   485   492      1
   511   485   493      1
   512   486   487      1
   513   486   494      1
   514   486   495      1
   515   487   488      1
   516   487   489      1
   517   487   496      1
   518   488   497      1
   519   488   498      1
   520   489   490      1
   521   489   499      1
   522   489   500      1
   523   490   491      1
   524   490   501      1
   525   491   502      1
   526   491   503      1
   527   491   507      1
   528   504   505      1
   529   504   509      1
   530   504   511      1
   531   504   512      1
   532   505   506      1
   533   505   513      1
   534   505   514      1
   535   506   507      1
   536   506   508      1
   537   506   515      1
   538   507   516      1
   539   507   517      1
   540   508   509      1
   541   508   518      1
   542   508   519      1
   543   509   510      1
   544   509   520      1
   545   510   521      1
   546   510   522      1
   547   510   526      1
   548   523   524      1
   549   523   528      1
   550   523   530      1
   551   523   531      1
   552   524   525      1
   553   524   532      1
   554   524   533      1
   555   525   526      1
   556   525   527      1
   557   525   534      1
   558   526   535      1
   559   526   536      1
   560   527   528      1
   561   527   537      1
   562   527   538      1
   563   528   529      1
   564   528   539      1
   565   529   540      1
   566   529   541      1
   567   529   545      1
   568   542   543      1
   569   542   547      1
   570   542   549      1
   571   542   550      1
   572   543   544      1
   573   543   551      1
   574   543   552      1
   575   544   545      1
   576   544   546      1
   577   544   553      1
   578   545   554      1
   579   545   555      1
   580   546   547      1
   581   546   556      1
   582   546   557      1
   583   547   548      1
   584   547   558      1
   585   548   559      1
   586   548   560      1
   587   548   564      1
   588   561   562      1
   589   561   566      1
   590   561   568      1
   591   561   569      1
   592   562   563      1
   593   562   570      1
   594   562   571      1
   595   563   564      1
   596   563   565      1
   597   563   572      1
   598   564   573      1
   599   564   574      1
   600   565   566      1
   601   565   575      1
   602   565   576      1
   603   566   567      1
   604   566   577      1
   605   567   578      1
   606   567   579      1
   607   567   583      1
   608   580   581      1
   609   580   585      1
   610   580   587      1
   611   580   588      1
   612   581   582      1
   613   581   589      1
   614   581   590      1
   615   582   583      1
   616   582   584      1
   617   582   591      1
   618   583   592      1
   619   583   593      1
   620   584   585      1
   621   584   594      1
   622   584   595      1
   623   585   586      1
   624   585   596      1
   625   586   597      1
   626   586   598      1
   627   586   602      1
   628   599   600      1
   629   599   604      1
   630   599   606      1
   631   599   607      1
   632   600   601      1
   633   600   608      1
   634   600   609      1
   635   601   602      1
   636   601   603      1
   637   601   610      1
   638   602   611      1
   639   602   612      1
   640   603   604      1
   641   603   613      1
   642   603   614      1
   643   604   605      1
   644   604   615      1
   645   605   616      1
   646   605   617      1
   647   605   621      1
   648   618   619      1
   649   618   623      1
   650   618   625      1
   651   618   626      1
   652   619   620      1
   653   619   627      1
   654   619   628      1
   655   620   621      1
   656   620   622      1
   657   620   629      1
   658   621   630      1
   659   621   631      1
   660   622   623      1
   661   622   632      1
   662   622   633      1
   663   623   624      1
   664   623   634      1
   665   624   635      1
   666   624   636      1
   667   624   640      1
   668   637   638      1
   669   637   642      1
   670   637   644      1
   671   637   645      1
   672   638   639      1
   673   638   646      1
   674   638   647      1
   675   639   640      1
   676   639   641      1
   677   639   648      1
   678   640   649      1
   679   640   650      1
   680   641   642      1
   681   641   651      1
   682   641   652      1
   683   642   643      1
   684   642   653      1
   685   643   654      1
   686   643   655      1
   687   643   659      1
   688   656   657      1
   689   656   661      1
   690   656   663      1
   691   656   664      1
   692   657   658      1
   693   657   665      1
   694   657   666      1
   695   658   659      1
   696   658   660      1
   697   658   667      1
   698   659   668      1
   699   659   669      1
   700   660   661      1
   701   660   670      1
   702   660   671      1
   703   661   662      1
   704   661   672      1
   705   662   673      1
   706   662   674      1
   707   662   675      1
   708   675   676      1
   709   675   677      1
   710   675   678      1
   711   676   679      1
   712   676   680      1
   713   676   684      1
   714   681   682      1
   715   681   686      1
   716   681   688      1
   717   681   689      1
   718   682   683      1
   719   682   690      1
   720   682   691      1
   721   683   684      1
   722   683   685      1
   723   683   692      1
   724   684   693      1
   725   684   694      1
   726   685   686      1
   727   685   695      1
   728   685   696      1
   729   686   687      1
   730   686   697      1
   731   687   698      1
   732   687   699      1
   733   687   703      1
   734   700   701      1
   735   700   705      1
   736   700   707      1
   737   700   708      1
   738   701   702      1
   739   701   709      1
   740   701   710      1
   741   702   703      1
   742   702   704      1
   743   702   711      1
   744   703   712      1
   745   703   713      1
   746   704   705      1
   747   704   714      1
   748   704   715      1
   749   705   706      1
   750   705   716      1
   751   706   717      1
   752   706   718      1
   753   706   722      1
   754   719   720      1
   755   719   724      1
   756   719   726      1
   757   719   727      1
   758   720   721      1
   759   720   728      1
   760   720   729      1
   761   721   722      1
   762   721   723      1
   763   721   730      1
   764   722   731      1
   765   722   732      1
   766   723   724      1
   767   723   733      1
   768   723   734      1
   769   724   725      1
   770   724   735      1
   771   725   736      1
   772   725   737      1
   773   725   741      1
   774   738   739      1
   775   738   743      1
   776   738   745      1
   777   738   746      1
   778   739   740      1
   779   739   747      1
   780   739   748      1
   781   740   741      1
   782   740   742      1
   783   740   749      1
   784   741   750      1
   785   741   751      1
   786   742   743      1
   787   742   752      1
   788   742   753      1
   789   743   744      1
   790   743   754      1
   791   744   755      1
   792   744   756      1
   793   744   760      1
   794   757   758      1
   795   757   762      1
   796   757   764      1
   797   757   765      1
   798   758   759      1
   799   758   766      1
   800   758   767      1
   801   759   760      1
   802   759   761      1
   803   759   768      1
   804   760   769      1
   805   760   770      1
   806   761   762      1
   807   761   771      1
   808   761   772      1
   809   762   763      1
   810   762   773      1
   811   763   774      1
   812   763   775      1
   813   763   779      1
   814   776   777      1
   815   776   781      1
   816   776   783      1
   817   776   784      1
   818   777   778      1
   819   777   785      1
   820   777   786      1
   821   778   779      1
   822   778   780      1
   823   778   787      1
   824   779   788      1
   825   779   789      1
   826   780   781      1
   827   780   790      1
   828   780   791      1
   829   781   782      1
   830   781   792      1
   831   782   793      1
   832   782   794      1
   833   782   795      1
   834   795   796      1
   835   795   797      1
   836   795   798      1
   837   796   799      1
   838   796   800      1
   839   796   804      1
   840   801   802      1
   841   801   806      1
   842   801   808      1
   843   801   809      1
   844   802   803      1
   845   802   810      1
   846   802   811      1
   847   803   804      1
   848   803   805      1
   849   803   812      1
   850   804   813      1
   851   804   814      1
   852   805   806      1
   853   805   815      1
   854   805   816      1
   855   806   807      1
   856   806   817      1
   857   807   818      1
   858   807   819      1
   859   807   823      1
   860   820   821      1
   861   820   825      1
   862   820   827      1
   863   820   828      1
   864   821   822      1
   865   821   829      1
   866   821   830      1
   867   822   823      1
   868   822   824      1
   869   822   831      1
   870   823   832      1
   871   823   833      1
   872   824   825      1
   873   824   834      1
   874   824   835      1
   875   825   826      1
   876   825   836      1
   877   826   837      1
   878   826   838      1
   879   826   839      1
   880   839   840      1
   881   839   841      1
   882   839   842      1
   883   840   843      1
   884   840   844      1
   885   840   848      1
   886   845   846      1
   887   845   850      1
   888   845   852      1
   889   845   853      1
   890   846   847      1
   891   846   854      1
   892   846   855      1
   893   847   848      1
   894   847   849      1
   895   847   856      1
   896   848   857      1
   897   848   858      1
   898   849   850      1
   899   849   859      1
   900   849   860      1
   901   850   851      1
   902   850   861      1
   903   851   862      1
   904   851   863      1
   905   851   867      1
   906   864   865      1
   907   864   869      1
   908   864   871      1
   909   864   872      1
   910   865   866      1
   911   865   873      1
   912   865   874      1
   913   866   867      1
   914   866   868      1
   915   866   875      1
   916   867   876      1
   917   867   877      1
   918   868   869      1
   919   868   878      1
   920   868   879      1
   921   869   870      1
   922   869   880      1
   923   870   881      1
   924   870   882      1
   925   870   883      1
   926   883   884      1
   927   883   885      1
   928   883   886      1
   929   884   887      1
   930   884   888      1
   931   884   892      1
   932   889   890      1
   933   889   894      1
   934   889   896      1
   935   889   897      1
   936   890   891      1
   937   890   898      1
   938   890   899      1
   939   891   892      1
   940   891   893      1
   941   891   900      1
   942   892   901      1
   943   892   902      1
   944   893   894      1
   945   893   903      1
   946   893   904      1
   947   894   895      1
   948   894   905      1
   949   895   906      1
   950   895   907      1
   951   895   908      1
   952   908   909      1
   953   908   910      1
   954   908   911      1
   955   909   912      1
   956   909   913      1
   957   909   917      1
   958   914   915      1
   959   914   919      1
   960   914   921      1
   961   914   922      1
   962   915   916      1
   963   915   923      1
   964   915   924      1
   965   916   917      1
   966   916   918      1
   967   916   925      1
   968   917   926      1
   969   917   927      1
   970   918   919      1
   971   918   928      1
   972   918   929      1
   973   919   920      1
   974   919   930      1
   975   920   931      1
   976   920   932      1
   977   920   936      1
   978   933   934      1
   979   933   938      1
   980   933   940      1
   981   933   941      1
   982   934   935      1
   983   934   942      1
   984   934   943      1
   985   935   936      1
   986   935   937      1
   987   935   944      1
   988   936   945      1
   989   936   946      1
   990   937   938      1
   991   937   947      1
   992   937   948      1
   993   938   939      1
   994   938   949      1
   995   939   950      1
   996   939   951      1
   997   939   955      1
   998   952   953      1
   999   952   957      1
  1000   952   959      1
  1001   952   960      1
  1002   953   954      1
  1003   953   961      1
  1004   953   962      1
  1005   954   955      1
  1006   954   956      1
  1007   954   963      1
  1008   955   964      1
  1009   955   965      1
  1010   956   957      1
  1011   956   966      1
  1012   956   967      1
  1013   957   958      1
  1014   957   968      1
  1015   958   969      1
  1016   958   970      1
  1017   958   971      1
  1018   971   972      1
  1019   971   973      1
  1020   971   974      1
  1021   972   975      1
  1022   972   976      1
  1023   972   980      1
  1024   977   978      1
  1025   977   982      1
  1026   977   984      1
  1027   977   985      1
  1028   978   979      1
  1029   978   986      1
  1030   978   987      1
  1031   979   980      1
  1032   979   981      1
  1033   979   988      1
  1034   980   989      1
  1035   980   990      1
  1036   981   982      1
  1037   981   991      1
  1038   981   992      1
  1039   982   983      1
  1040   982   993      1
  1041   983   994      1
  1042   983   995      1
  1043   983   999      1
  1044   996   997      1
  1045   996  1001      1
  1046   996  1003      1
  1047   996  1004      1
  1048   997   998      1
  1049   997  1005      1
  1050   997  1006      1
  1051   998   999      1
  1052   998  1000      1
  1053   998  1007      1
  1054   999  1008      1
  1055   999  1009      1
  1056  1000  1001      1
  1057  1000  1010      1
  1058  1000  1011      1
  1059  1001  1002      1
  1060  1001  1012      1
  1061  1002  1013      1
  1062  1002  1014      1
  1063  1002  1015      1
  1064  1015  1016      1
  1065  1015  1017      1
  1066  1015  1018      1
  1067  1016  1019      1
  1068  1016  1020      1
  1069  1016  1024      1
  1070  1021  1022      1
  1071  1021  1026      1
  1072  1021  1028      1
  1073  1021  1029      1
  1074  1022  1023      1
  1075  1022  1030      1
  1076  1022  1031      1
  1077  1023  1024      1
  1078  1023  1025      1
  1079  1023  1032      1
  1080  1024  1033      1
  1081  1024  1034      1
  1082  1025  1026      1
  1083  1025  1035      1
  1084  1025  1036      1
  1085  1026  1027      1
  1086  1026  1037      1
  1087  1027  1038      1
  1088  1027  1039      1
  1089  1027  1040      H
