###
### Created by PolyChef-cpp17 on Wed Feb 26 21:14:13 2025
###

@<TRIPOS>MOLECULE
NO_INFO
909 951 1 0 0
SMALL
USER_CHARGES


@<TRIPOS>ATOM
      1 C         129.6117  226.6617   86.8751 C.3       0        0    0.0000
      2 C         130.9834  226.9670   86.2897 C.3       0        0    0.0000
      3 C         131.5877  225.5732   86.0902 C.3       0        0    0.0000
      4 C         133.1058  225.5373   85.8896 C.3       0        0    0.0000
      5 C         131.0521  224.7272   87.2618 C.3       0        0    0.0000
      6 C         129.9120  225.5531   87.8892 C.3       0        0    0.0000
      7 C         128.6975  224.7489   88.3631 C.3       0        0    0.0000
      8 H         129.1641  227.5413   87.3480 H         0        0    0.0000
      9 H         128.9377  226.3223   86.0810 H         0        0    0.0000
     10 H         130.9122  227.5228   85.3496 H         0        0    0.0000
     11 H         131.5623  227.5696   86.9982 H         0        0    0.0000
     12 H         131.1415  225.1605   85.1727 H         0        0    0.0000
     13 H         133.5875  225.2961   86.8446 H         0        0    0.0000
     14 H         133.3567  224.7257   85.1964 H         0        0    0.0000
     15 H         131.8143  224.5199   88.0206 H         0        0    0.0000
     16 H         130.7166  223.7541   86.8873 H         0        0    0.0000
     17 H         130.3305  226.0421   88.7818 H         0        0    0.0000
     18 H         128.1225  225.3543   89.0738 H         0        0    0.0000
     19 H         128.0389  224.5569   87.5078 H         0        0    0.0000
     20 C         131.1021  222.6601   92.0432 C.3       1        0    0.0000
     21 C         130.1420  223.6383   91.3619 C.3       1        0    0.0000
     22 C         130.3526  223.4777   89.8457 C.3       1        0    0.0000
     23 C         129.0528  223.3893   89.0364 C.3       1        0    0.0000
     24 C         131.2107  222.2156   89.7108 C.3       1        0    0.0000
     25 C         132.0938  222.2140   90.9633 C.3       1        0    0.0000
     26 C         133.3061  223.1549   90.8286 C.3       1        0    0.0000
     27 H         131.5775  223.1026   92.9237 H         1        0    0.0000
     28 H         130.5316  221.7888   92.3897 H         1        0    0.0000
     29 H         129.1122  223.4306   91.6729 H         1        0    0.0000
     30 H         130.3696  224.6678   91.6622 H         1        0    0.0000
     31 H         130.9439  224.3323   89.4871 H         1        0    0.0000
     32 H         129.1642  222.6312   88.2520 H         1        0    0.0000
     33 H         128.2245  223.0647   89.6766 H         1        0    0.0000
     34 H         131.7902  222.2111   88.7819 H         1        0    0.0000
     35 H         130.5757  221.3202   89.7098 H         1        0    0.0000
     36 H         132.4440  221.1937   91.1652 H         1        0    0.0000
     37 H         133.0618  224.1666   91.1710 H         1        0    0.0000
     38 H         133.5885  223.2356   89.7722 H         1        0    0.0000
     39 C         134.5376  222.6269   91.6201 C.3       2        0    0.0000
     40 C         134.9972  223.5570   92.7520 C.3       2        0    0.0000
     41 H         134.2408  221.6690   92.0660 H         2        0    0.0000
     42 H         135.3573  222.4087   90.9255 H         2        0    0.0000
     43 H         135.7475  224.2742   92.3991 H         2        0    0.0000
     44 H         134.1314  224.1454   93.0819 H         2        0    0.0000
     45 C         138.6218  220.8248   93.4153 C.3       3        0    0.0000
     46 C         137.5431  221.7209   92.8020 C.3       3        0    0.0000
     47 C         136.2670  221.5072   93.6358 C.3       3        0    0.0000
     48 C         135.5399  222.8031   94.0153 C.3       3        0    0.0000
     49 C         136.7401  220.7226   94.8637 C.3       3        0    0.0000
     50 C         137.8896  219.8516   94.3457 C.3       3        0    0.0000
     51 C         137.3887  218.5858   93.6247 C.3       3        0    0.0000
     52 H         139.2265  220.3318   92.6482 H         3        0    0.0000
     53 H         139.3023  221.4477   94.0100 H         3        0    0.0000
     54 H         137.8794  222.7635   92.7982 H         3        0    0.0000
     55 H         137.3583  221.4365   91.7595 H         3        0    0.0000
     56 H         135.5839  220.8644   93.0624 H         3        0    0.0000
     57 H         134.6926  222.5659   94.6696 H         3        0    0.0000
     58 H         136.2052  223.4631   94.5838 H         3        0    0.0000
     59 H         135.9314  220.1366   95.3125 H         3        0    0.0000
     60 H         137.1186  221.4084   95.6327 H         3        0    0.0000
     61 H         138.5383  219.5629   95.1824 H         3        0    0.0000
     62 H         138.1787  218.1428   93.0082 H         3        0    0.0000
     63 H         136.5685  218.8529   92.9479 H         3        0    0.0000
     64 C         136.8606  217.5202   94.6284 C.3       4        0    0.0000
     65 C         137.5248  216.1435   94.4835 C.3       4        0    0.0000
     66 H         137.0776  217.8986   95.6356 H         4        0    0.0000
     67 H         135.7696  217.4470   94.5495 H         4        0    0.0000
     68 H         136.8051  215.3337   94.6516 H         4        0    0.0000
     69 H         137.8753  216.0418   93.4484 H         4        0    0.0000
     70 C         136.0488  215.5359   97.1911 C.3       5        0    0.0000
     71 C         137.0263  216.7089   97.0776 C.3       5        0    0.0000
     72 C         138.4210  216.0996   96.8975 C.3       5        0    0.0000
     73 C         138.7753  215.9390   95.4071 C.3       5        0    0.0000
     74 C         138.2961  214.7783   97.6666 C.3       5        0    0.0000
     75 C         136.9005  214.2609   97.3089 C.3       5        0    0.0000
     76 C         136.3784  213.2403   98.3265 C.3       5        0    0.0000
     77 H         135.3934  215.6829   98.0571 H         5        0    0.0000
     78 H         135.4073  215.4817   96.3041 H         5        0    0.0000
     79 H         136.9998  217.2827   98.0127 H         5        0    0.0000
     80 H         136.7481  217.3964   96.2723 H         5        0    0.0000
     81 H         139.1720  216.7422   97.3747 H         5        0    0.0000
     82 H         139.1671  214.9289   95.2367 H         5        0    0.0000
     83 H         139.5668  216.6352   95.1096 H         5        0    0.0000
     84 H         138.3632  214.9774   98.7442 H         5        0    0.0000
     85 H         139.0758  214.0519   97.4188 H         5        0    0.0000
     86 H         136.9501  213.7853   96.3193 H         5        0    0.0000
     87 H         135.7991  212.4594   97.8205 H         5        0    0.0000
     88 H         135.6969  213.7393   99.0256 H         5        0    0.0000
     89 C         135.9276  209.2140   98.6237 C.3       6        0    0.0000
     90 C         135.8557  210.6741   99.0784 C.3       6        0    0.0000
     91 C         137.2958  211.0975   99.3961 C.3       6        0    0.0000
     92 C         137.5350  212.5875   99.1367 C.3       6        0    0.0000
     93 C         138.1357  210.1553   98.5274 C.3       6        0    0.0000
     94 C         137.4081  208.8160   98.6858 C.3       6        0    0.0000
     95 C         137.7725  207.7638   97.6348 C.3       6        0    0.0000
     96 H         135.3194  208.5653   99.2633 H         6        0    0.0000
     97 H         135.5316  209.1290   97.6047 H         6        0    0.0000
     98 H         135.2100  210.7887   99.9556 H         6        0    0.0000
     99 H         135.4254  211.2854   98.2761 H         6        0    0.0000
    100 H         137.4944  210.8700  100.4536 H         6        0    0.0000
    101 H         138.4681  212.7118   98.5742 H         6        0    0.0000
    102 H         137.6639  213.1227  100.0847 H         6        0    0.0000
    103 H         139.1739  210.0997   98.8699 H         6        0    0.0000
    104 H         138.1347  210.4814   97.4797 H         6        0    0.0000
    105 H         137.6150  208.4213   99.6912 H         6        0    0.0000
    106 H         138.8477  207.5519   97.6656 H         6        0    0.0000
    107 H         137.5570  208.1606   96.6355 H         6        0    0.0000
    108 C         136.9794  206.4414   97.8228 C.3       7        0    0.0000
    109 C         136.7090  205.6848   96.5144 C.3       7        0    0.0000
    110 H         137.5878  205.7964   98.4696 H         7        0    0.0000
    111 H         136.0491  206.6428   98.3667 H         7        0    0.0000
    112 H         136.4156  206.3702   95.7106 H         7        0    0.0000
    113 H         137.6459  205.2103   96.1957 H         7        0    0.0000
    114 C         135.6449  204.5410   96.6481 C.3       8        0    0.0000
    115 C         134.7772  204.3466   95.3964 C.3       8        0    0.0000
    116 H         134.9849  204.8179   97.4802 H         8        0    0.0000
    117 H         136.1406  203.6073   96.9388 H         8        0    0.0000
    118 H         134.1170  205.2181   95.3011 H         8        0    0.0000
    119 H         135.3895  204.3163   94.4874 H         8        0    0.0000
    120 C         133.8520  203.0819   95.4526 C.3       9        0    0.0000
    121 C         132.3732  203.3774   95.1642 C.3       9        0    0.0000
    122 H         134.2167  202.3881   94.6843 H         9        0    0.0000
    123 H         133.9769  202.5754   96.4169 H         9        0    0.0000
    124 H         132.1780  204.4561   95.1472 H         9        0    0.0000
    125 H         132.1403  203.0006   94.1600 H         9        0    0.0000
    126 C         131.3787  202.6760   96.1529 C.3      10        0    0.0000
    127 C         130.7413  201.3962   95.5932 C.3      10        0    0.0000
    128 H         130.5752  203.3952   96.3573 H        10        0    0.0000
    129 H         131.8804  202.4865   97.1090 H        10        0    0.0000
    130 H         129.6509  201.5010   95.6611 H        10        0    0.0000
    131 H         130.9779  201.2644   94.5308 H        10        0    0.0000
    132 C         130.7423  200.5939  100.1329 C.3      11        0    0.0000
    133 C         131.0942  201.1382   98.7555 C.3      11        0    0.0000
    134 C         130.5737  200.0473   97.8138 C.3      11        0    0.0000
    135 C         131.1212  200.0967   96.3842 C.3      11        0    0.0000
    136 C         130.7984  198.7210   98.5660 C.3      11        0    0.0000
    137 C         131.1191  199.1130  100.0216 C.3      11        0    0.0000
    138 C         130.5232  198.2003  101.0978 C.3      11        0    0.0000
    139 H         131.2986  201.1012  100.9272 H        11        0    0.0000
    140 H         129.6727  200.7339  100.3239 H        11        0    0.0000
    141 H         130.6204  202.1062   98.5651 H        11        0    0.0000
    142 H         132.1790  201.2687   98.6752 H        11        0    0.0000
    143 H         129.4847  200.1859   97.7363 H        11        0    0.0000
    144 H         132.2138  200.0106   96.4161 H        11        0    0.0000
    145 H         130.7527  199.2260   95.8289 H        11        0    0.0000
    146 H         131.6259  198.1331   98.1544 H        11        0    0.0000
    147 H         129.9031  198.0956   98.4808 H        11        0    0.0000
    148 H         132.2124  199.0529  100.1314 H        11        0    0.0000
    149 H         131.1414  198.2611  102.0013 H        11        0    0.0000
    150 H         129.5282  198.5710  101.3714 H        11        0    0.0000
    151 C         128.4366  194.2649  102.7743 C.3      12        0    0.0000
    152 C         128.6424  195.6668  102.1947 C.3      12        0    0.0000
    153 C         130.1368  195.7821  101.8666 C.3      12        0    0.0000
    154 C         130.4014  196.7057  100.6743 C.3      12        0    0.0000
    155 C         130.5596  194.3250  101.6517 C.3      12        0    0.0000
    156 C         129.8153  193.5915  102.7724 C.3      12        0    0.0000
    157 C         129.7216  192.0741  102.5894 C.3      12        0    0.0000
    158 H         128.0218  194.3075  103.7872 H        12        0    0.0000
    159 H         127.7203  193.7144  102.1528 H        12        0    0.0000
    160 H         128.3352  196.4424  102.9045 H        12        0    0.0000
    161 H         128.0241  195.7849  101.2968 H        12        0    0.0000
    162 H         130.6540  196.1698  102.7564 H        12        0    0.0000
    163 H         129.5788  196.6130   99.9551 H        12        0    0.0000
    164 H         131.3146  196.3991  100.1511 H        12        0    0.0000
    165 H         131.6440  194.1981  101.7296 H        12        0    0.0000
    166 H         130.2397  193.9644  100.6660 H        12        0    0.0000
    167 H         130.3089  193.8187  103.7285 H        12        0    0.0000
    168 H         129.5520  191.8280  101.5346 H        12        0    0.0000
    169 H         128.8558  191.6952  103.1456 H        12        0    0.0000
    170 C         130.9933  191.3384  103.0939 C.3      13        0    0.0000
    171 C         130.7147  189.9556  103.7002 C.3      13        0    0.0000
    172 H         131.6473  191.2028  102.2230 H        13        0    0.0000
    173 H         131.5368  191.9802  103.7972 H        13        0    0.0000
    174 H         129.6440  189.7209  103.6832 H        13        0    0.0000
    175 H         131.2109  189.2030  103.0740 H        13        0    0.0000
    176 C         130.6331  186.2085  104.5582 C.3      14        0    0.0000
    177 C         131.6944  187.2813  104.7973 C.3      14        0    0.0000
    178 C         131.0445  188.3534  105.6891 C.3      14        0    0.0000
    179 C         131.2725  189.7734  105.1543 C.3      14        0    0.0000
    180 C         129.5653  187.9467  105.7748 C.3      14        0    0.0000
    181 C         129.5681  186.4189  105.6375 C.3      14        0    0.0000
    182 C         129.9165  185.6696  106.9366 C.3      14        0    0.0000
    183 H         130.1827  186.3689  103.5702 H        14        0    0.0000
    184 H         131.0594  185.2003  104.5591 H        14        0    0.0000
    185 H         132.0548  187.6813  103.8433 H        14        0    0.0000
    186 H         132.5601  186.8495  105.3131 H        14        0    0.0000
    187 H         131.4888  188.2728  106.6912 H        14        0    0.0000
    188 H         132.3402  190.0209  105.1737 H        14        0    0.0000
    189 H         130.7689  190.4928  105.8111 H        14        0    0.0000
    190 H         129.0972  188.2941  106.7010 H        14        0    0.0000
    191 H         129.0018  188.3812  104.9388 H        14        0    0.0000
    192 H         128.5947  186.0705  105.2692 H        14        0    0.0000
    193 H         129.5357  186.2002  107.8158 H        14        0    0.0000
    194 H         131.0069  185.6246  107.0458 H        14        0    0.0000
    195 C         129.3734  184.2126  106.9338 C.3      15        0    0.0000
    196 C         128.9048  183.7189  108.3101 C.3      15        0    0.0000
    197 H         128.5112  184.1971  106.2549 H        15        0    0.0000
    198 H         130.1237  183.5394  106.5028 H        15        0    0.0000
    199 H         129.6880  183.8445  109.0668 H        15        0    0.0000
    200 H         128.0598  184.3438  108.6264 H        15        0    0.0000
    201 C         130.2858  181.3269  111.3296 C.3      16        0    0.0000
    202 C         129.3945  182.3728  110.6617 C.3      16        0    0.0000
    203 C         128.4513  181.6095  109.7158 C.3      16        0    0.0000
    204 C         128.3975  182.2352  108.3159 C.3      16        0    0.0000
    205 C         128.9658  180.1618  109.7352 C.3      16        0    0.0000
    206 C         129.5835  179.9817  111.1276 C.3      16        0    0.0000
    207 C         128.5579  179.7006  112.2410 C.3      16        0    0.0000
    208 H         131.2561  181.3083  110.8171 H        16        0    0.0000
    209 H         130.4799  181.5622  112.3807 H        16        0    0.0000
    210 H         130.0051  183.1202  110.1434 H        16        0    0.0000
    211 H         128.8051  182.9063  111.4169 H        16        0    0.0000
    212 H         127.4442  181.6294  110.1558 H        16        0    0.0000
    213 H         127.3767  182.1927  107.9187 H        16        0    0.0000
    214 H         129.0271  181.6512  107.6338 H        16        0    0.0000
    215 H         128.1707  179.4408  109.5212 H        16        0    0.0000
    216 H         129.7466  180.0249  108.9757 H        16        0    0.0000
    217 H         130.3278  179.1752  111.1097 H        16        0    0.0000
    218 H         127.6418  179.2585  111.8350 H        16        0    0.0000
    219 H         128.2670  180.6478  112.7111 H        16        0    0.0000
    220 C         131.5465  176.1473  112.1128 C.3      17        0    0.0000
    221 C         130.8257  177.4869  111.9412 C.3      17        0    0.0000
    222 C         129.5566  177.4062  112.7999 C.3      17        0    0.0000
    223 C         129.1362  178.7731  113.3470 C.3      17        0    0.0000
    224 C         129.9264  176.3756  113.8718 C.3      17        0    0.0000
    225 C         130.6830  175.3129  113.0680 C.3      17        0    0.0000
    226 C         131.5176  174.3472  113.9139 C.3      17        0    0.0000
    227 H         131.6758  175.6365  111.1526 H        17        0    0.0000
    228 H         132.5475  176.3216  112.5254 H        17        0    0.0000
    229 H         130.5780  177.6765  110.8913 H        17        0    0.0000
    230 H         131.4829  178.3001  112.2719 H        17        0    0.0000
    231 H         128.7487  176.9921  112.1791 H        17        0    0.0000
    232 H         130.0065  179.2665  113.7961 H        17        0    0.0000
    233 H         128.3950  178.6514  114.1455 H        17        0    0.0000
    234 H         129.0407  175.9621  114.3644 H        17        0    0.0000
    235 H         130.5718  176.8212  114.6392 H        17        0    0.0000
    236 H         129.9576  174.7454  112.4668 H        17        0    0.0000
    237 H         132.5435  174.7199  114.0155 H        17        0    0.0000
    238 H         131.5820  173.3799  113.4013 H        17        0    0.0000
    239 C         127.2223  174.4877  115.1004 C.3      18        0    0.0000
    240 C         128.5690  174.7017  114.4052 C.3      18        0    0.0000
    241 C         129.6105  174.9130  115.5187 C.3      18        0    0.0000
    242 C         130.9082  174.1191  115.3244 C.3      18        0    0.0000
    243 C         128.8767  174.5254  116.8066 C.3      18        0    0.0000
    244 C         127.4191  174.9264  116.5556 C.3      18        0    0.0000
    245 C         127.1785  176.4325  116.7717 C.3      18        0    0.0000
    246 H         126.4109  175.0123  114.5869 H        18        0    0.0000
    247 H         126.9789  173.4177  115.0771 H        18        0    0.0000
    248 H         128.8000  173.8443  113.7635 H        18        0    0.0000
    249 H         128.5290  175.5874  113.7603 H        18        0    0.0000
    250 H         129.8474  175.9854  115.5705 H        18        0    0.0000
    251 H         131.6424  174.4338  116.0757 H        18        0    0.0000
    252 H         130.7300  173.0493  115.4830 H        18        0    0.0000
    253 H         129.3067  175.0144  117.6867 H        18        0    0.0000
    254 H         128.9352  173.4411  116.9680 H        18        0    0.0000
    255 H         126.7601  174.3523  117.2193 H        18        0    0.0000
    256 H         126.1451  176.6282  117.0787 H        18        0    0.0000
    257 H         127.3364  176.9655  115.8266 H        18        0    0.0000
    258 C         130.1280  175.5119  120.5826 C.3      19        0    0.0000
    259 C         130.1202  176.4990  119.4128 C.3      19        0    0.0000
    260 C         129.1030  175.9617  118.3903 C.3      19        0    0.0000
    261 C         128.1515  177.0266  117.8310 C.3      19        0    0.0000
    262 C         128.3598  174.8505  119.1386 C.3      19        0    0.0000
    263 C         129.4081  174.2542  120.0841 C.3      19        0    0.0000
    264 C         130.3462  173.2623  119.3705 C.3      19        0    0.0000
    265 H         131.1413  175.3242  120.9504 H        19        0    0.0000
    266 H         129.5591  175.9459  121.4148 H        19        0    0.0000
    267 H         129.8723  177.5039  119.7721 H        19        0    0.0000
    268 H         131.1144  176.5551  118.9544 H        19        0    0.0000
    269 H         129.6583  175.5018  117.5603 H        19        0    0.0000
    270 H         127.5579  177.4495  118.6503 H        19        0    0.0000
    271 H         128.7195  177.8540  117.3903 H        19        0    0.0000
    272 H         127.9336  174.1094  118.4546 H        19        0    0.0000
    273 H         127.5344  175.2720  119.7268 H        19        0    0.0000
    274 H         128.9057  173.7467  120.9174 H        19        0    0.0000
    275 H         130.9352  173.7632  118.5943 H        19        0    0.0000
    276 H         129.7481  172.4920  118.8693 H        19        0    0.0000
    277 C         131.3070  172.5551  120.3699 C.3      20        0    0.0000
    278 C         131.4835  171.0525  120.1084 C.3      20        0    0.0000
    279 H         132.2872  173.0369  120.2617 H        20        0    0.0000
    280 H         130.9762  172.7450  121.3977 H        20        0    0.0000
    281 H         130.7324  170.6796  119.4022 H        20        0    0.0000
    282 H         132.4619  170.9020  119.6344 H        20        0    0.0000
    283 C         129.7891  172.0532  124.0747 C.3      21        0    0.0000
    284 C         130.0347  171.9348  122.5713 C.3      21        0    0.0000
    285 C         130.2312  170.4383  122.2731 C.3      21        0    0.0000
    286 C         131.4699  170.1739  121.4071 C.3      21        0    0.0000
    287 C         130.2781  169.7671  123.6544 C.3      21        0    0.0000
    288 C         129.4026  170.6509  124.5519 C.3      21        0    0.0000
    289 C         127.8912  170.3954  124.4072 C.3      21        0    0.0000
    290 H         130.7235  172.3565  124.5641 H        21        0    0.0000
    291 H         129.0389  172.8145  124.3105 H        21        0    0.0000
    292 H         130.8951  172.5451  122.2757 H        21        0    0.0000
    293 H         129.1676  172.3098  122.0150 H        21        0    0.0000
    294 H         129.3389  170.0810  121.7399 H        21        0    0.0000
    295 H         131.5257  169.1133  121.1358 H        21        0    0.0000
    296 H         132.3725  170.4000  121.9876 H        21        0    0.0000
    297 H         129.9417  168.7264  123.6166 H        21        0    0.0000
    298 H         131.3048  169.7667  124.0430 H        21        0    0.0000
    299 H         129.6913  170.5256  125.6033 H        21        0    0.0000
    300 H         127.6928  169.3833  124.0384 H        21        0    0.0000
    301 H         127.4781  171.0866  123.6626 H        21        0    0.0000
    302 C         123.5218  170.0273  125.4286 C.3      22        0    0.0000
    303 C         124.8885  169.9025  124.7570 C.3      22        0    0.0000
    304 C         125.9156  169.6922  125.8829 C.3      22        0    0.0000
    305 C         127.1305  170.6191  125.7448 C.3      22        0    0.0000
    306 C         125.1192  169.8932  127.1814 C.3      22        0    0.0000
    307 C         123.6896  169.4553  126.8386 C.3      22        0    0.0000
    308 C         123.4732  167.9312  126.8655 C.3      22        0    0.0000
    309 H         123.2568  171.0901  125.4991 H        22        0    0.0000
    310 H         122.7329  169.5352  124.8511 H        22        0    0.0000
    311 H         125.0977  170.7895  124.1490 H        22        0    0.0000
    312 H         124.9013  169.0389  124.0816 H        22        0    0.0000
    313 H         126.2554  168.6478  125.8384 H        22        0    0.0000
    314 H         127.8164  170.4763  126.5878 H        22        0    0.0000
    315 H         126.7957  171.6628  125.7824 H        22        0    0.0000
    316 H         125.5506  169.3351  128.0181 H        22        0    0.0000
    317 H         125.1117  170.9542  127.4632 H        22        0    0.0000
    318 H         122.9739  169.9341  127.5192 H        22        0    0.0000
    319 H         124.2046  167.4374  127.5143 H        22        0    0.0000
    320 H         123.6259  167.5272  125.8574 H        22        0    0.0000
    321 C         122.1930  169.1970  130.6456 C.3      23        0    0.0000
    322 C         122.9520  168.4043  129.5786 C.3      23        0    0.0000
    323 C         121.9099  167.5366  128.8504 C.3      23        0    0.0000
    324 C         122.0356  167.5534  127.3220 C.3      23        0    0.0000
    325 C         120.5595  168.0779  129.3307 C.3      23        0    0.0000
    326 C         120.8169  168.5340  130.7708 C.3      23        0    0.0000
    327 C         120.7982  167.3621  131.7705 C.3      23        0    0.0000
    328 H         122.7470  169.2459  131.5878 H        23        0    0.0000
    329 H         122.0645  170.2288  130.2942 H        23        0    0.0000
    330 H         123.4793  169.0902  128.9064 H        23        0    0.0000
    331 H         123.7087  167.7633  130.0459 H        23        0    0.0000
    332 H         122.0103  166.5025  129.2097 H        23        0    0.0000
    333 H         121.7950  166.5592  126.9269 H        23        0    0.0000
    334 H         121.3123  168.2521  126.8859 H        23        0    0.0000
    335 H         119.7670  167.3260  129.2580 H        23        0    0.0000
    336 H         120.2554  168.9399  128.7228 H        23        0    0.0000
    337 H         120.0618  169.2750  131.0626 H        23        0    0.0000
    338 H         121.7769  166.8727  131.8248 H        23        0    0.0000
    339 H         120.0818  166.6050  131.4303 H        23        0    0.0000
    340 C         122.4833  170.8269  134.1852 C.3      24        0    0.0000
    341 C         122.2992  169.5473  133.3815 C.3      24        0    0.0000
    342 C         120.8051  169.2514  133.5475 C.3      24        0    0.0000
    343 C         120.3742  167.8245  133.1947 C.3      24        0    0.0000
    344 C         120.4553  169.7175  134.9744 C.3      24        0    0.0000
    345 C         121.6563  170.5598  135.4471 C.3      24        0    0.0000
    346 C         121.3080  171.7978  136.2792 C.3      24        0    0.0000
    347 H         123.5361  171.0168  134.4161 H        24        0    0.0000
    348 H         122.1008  171.6805  133.6148 H        24        0    0.0000
    349 H         122.5779  169.6804  132.3315 H        24        0    0.0000
    350 H         122.9259  168.7530  133.8017 H        24        0    0.0000
    351 H         120.2689  169.9195  132.8567 H        24        0    0.0000
    352 H         120.7970  167.1305  133.9308 H        24        0    0.0000
    353 H         119.2837  167.7480  133.2797 H        24        0    0.0000
    354 H         120.2971  168.8843  135.6676 H        24        0    0.0000
    355 H         119.5186  170.2850  134.9548 H        24        0    0.0000
    356 H         122.2633  169.9090  136.0944 H        24        0    0.0000
    357 H         122.2249  172.1960  136.7296 H        24        0    0.0000
    358 H         120.9187  172.5783  135.6148 H        24        0    0.0000
    359 C         120.6824  167.8248  137.9370 C.3      25        0    0.0000
    360 C         121.1383  169.1527  137.3517 C.3      25        0    0.0000
    361 C         119.9194  170.0544  137.5573 C.3      25        0    0.0000
    362 C         120.2672  171.5376  137.4094 C.3      25        0    0.0000
    363 C         119.3964  169.6512  138.9482 C.3      25        0    0.0000
    364 C         119.9402  168.2327  139.2160 C.3      25        0    0.0000
    365 C         118.9094  167.2183  139.7271 C.3      25        0    0.0000
    366 H         121.5261  167.1603  138.1482 H        25        0    0.0000
    367 H         120.0260  167.3161  137.2228 H        25        0    0.0000
    368 H         122.0083  169.5315  137.9019 H        25        0    0.0000
    369 H         121.4130  169.0624  136.2963 H        25        0    0.0000
    370 H         119.1586  169.7801  136.8120 H        25        0    0.0000
    371 H         119.3608  172.1203  137.2067 H        25        0    0.0000
    372 H         120.6756  171.9102  138.3564 H        25        0    0.0000
    373 H         119.7710  170.3295  139.7249 H        25        0    0.0000
    374 H         118.3031  169.7054  138.9807 H        25        0    0.0000
    375 H         120.6967  168.3314  140.0087 H        25        0    0.0000
    376 H         119.4326  166.3181  140.0708 H        25        0    0.0000
    377 H         118.2694  166.9098  138.8917 H        25        0    0.0000
    378 C         117.3187  171.3037  141.6771 C.3      26        0    0.0000
    379 C         117.7581  170.2992  140.6091 C.3      26        0    0.0000
    380 C         118.4413  169.1373  141.3523 C.3      26        0    0.0000
    381 C         118.0054  167.7453  140.8784 C.3      26        0    0.0000
    382 C         118.1109  169.3810  142.8283 C.3      26        0    0.0000
    383 C         118.0511  170.9064  142.9633 C.3      26        0    0.0000
    384 C         119.4497  171.5407  143.0843 C.3      26        0    0.0000
    385 H         117.5025  172.3363  141.3653 H        26        0    0.0000
    386 H         116.2370  171.2027  141.8333 H        26        0    0.0000
    387 H         116.8930  169.9770  140.0191 H        26        0    0.0000
    388 H         118.4675  170.7656  139.9155 H        26        0    0.0000
    389 H         119.5286  169.2381  141.2248 H        26        0    0.0000
    390 H         118.0642  167.0413  141.7170 H        26        0    0.0000
    391 H         116.9596  167.7624  140.5507 H        26        0    0.0000
    392 H         118.8493  168.9238  143.4948 H        26        0    0.0000
    393 H         117.1308  168.9532  143.0760 H        26        0    0.0000
    394 H         117.4512  171.1747  143.8422 H        26        0    0.0000
    395 H         119.3809  172.6191  143.2650 H        26        0    0.0000
    396 H         119.9915  171.4099  142.1400 H        26        0    0.0000
    397 C         120.2870  170.8811  144.2182 C.3      27        0    0.0000
    398 C         121.7935  170.8218  143.9275 C.3      27        0    0.0000
    399 H         120.1377  171.4912  145.1182 H        27        0    0.0000
    400 H         119.8848  169.8864  144.4436 H        27        0    0.0000
    401 H         121.9888  170.7199  142.8535 H        27        0    0.0000
    402 H         122.2380  171.7760  144.2381 H        27        0    0.0000
    403 C         120.0436  169.5466  147.5487 C.3      28        0    0.0000
    404 C         121.0223  170.3449  146.7011 C.3      28        0    0.0000
    405 C         121.8687  169.2640  146.0170 C.3      28        0    0.0000
    406 C         122.5497  169.6938  144.7114 C.3      28        0    0.0000
    407 C         120.9562  168.0248  145.9107 C.3      28        0    0.0000
    408 C         119.6416  168.3996  146.6191 C.3      28        0    0.0000
    409 C         118.9724  167.2503  147.3768 C.3      28        0    0.0000
    410 H         120.5417  169.1695  148.4502 H        28        0    0.0000
    411 H         119.1841  170.1488  147.8586 H        28        0    0.0000
    412 H         120.4685  170.9547  145.9791 H        28        0    0.0000
    413 H         121.6338  171.0191  147.3091 H        28        0    0.0000
    414 H         122.6770  168.9993  146.7150 H        28        0    0.0000
    415 H         123.5641  170.0435  144.9377 H        28        0    0.0000
    416 H         122.6573  168.8194  144.0587 H        28        0    0.0000
    417 H         121.4462  167.1773  146.4060 H        28        0    0.0000
    418 H         120.7646  167.7198  144.8765 H        28        0    0.0000
    419 H         118.9462  168.7955  145.8648 H        28        0    0.0000
    420 H         118.0383  166.9627  146.8797 H        28        0    0.0000
    421 H         119.6261  166.3703  147.3513 H        28        0    0.0000
    422 C         115.0533  166.6318  149.4783 C.3      29        0    0.0000
    423 C         116.1903  166.9565  148.5196 C.3      29        0    0.0000
    424 C         117.4223  166.9337  149.4303 C.3      29        0    0.0000
    425 C         118.6740  167.6075  148.8600 C.3      29        0    0.0000
    426 C         116.9341  167.4783  150.7870 C.3      29        0    0.0000
    427 C         115.3947  167.4748  150.7114 C.3      29        0    0.0000
    428 C         114.6711  167.0762  152.0012 C.3      29        0    0.0000
    429 H         114.0772  166.8938  149.0585 H        29        0    0.0000
    430 H         115.0514  165.5589  149.7002 H        29        0    0.0000
    431 H         116.2639  166.2241  147.7097 H        29        0    0.0000
    432 H         116.0267  167.9431  148.0723 H        29        0    0.0000
    433 H         117.6817  165.8761  149.5893 H        29        0    0.0000
    434 H         118.5655  168.6952  148.9454 H        29        0    0.0000
    435 H         119.5409  167.3286  149.4706 H        29        0    0.0000
    436 H         117.2883  168.4946  150.9900 H        29        0    0.0000
    437 H         117.3221  166.8488  151.5951 H        29        0    0.0000
    438 H         115.0872  168.5073  150.4869 H        29        0    0.0000
    439 H         113.5886  167.1182  151.8321 H        29        0    0.0000
    440 H         114.9125  166.0336  152.2401 H        29        0    0.0000
    441 C         116.1091  171.3212  151.8948 C.3      30        0    0.0000
    442 C         115.2859  170.0457  151.7999 C.3      30        0    0.0000
    443 C         115.9190  169.1490  152.8658 C.3      30        0    0.0000
    444 C         115.0203  167.9654  153.2323 C.3      30        0    0.0000
    445 C         116.2169  170.1152  154.0270 C.3      30        0    0.0000
    446 C         116.2807  171.5255  153.4054 C.3      30        0    0.0000
    447 C         117.4908  172.3728  153.8186 C.3      30        0    0.0000
    448 H         115.6041  172.1695  151.4222 H        30        0    0.0000
    449 H         117.0683  171.1765  151.3859 H        30        0    0.0000
    450 H         114.2343  170.2544  152.0318 H        30        0    0.0000
    451 H         115.3348  169.5999  150.8017 H        30        0    0.0000
    452 H         116.8771  168.7750  152.4763 H        30        0    0.0000
    453 H         115.5026  167.3475  153.9990 H        30        0    0.0000
    454 H         114.0881  168.3406  153.6712 H        30        0    0.0000
    455 H         115.4172  170.0919  154.7777 H        30        0    0.0000
    456 H         117.1413  169.8296  154.5400 H        30        0    0.0000
    457 H         115.3896  172.0650  153.7597 H        30        0    0.0000
    458 H         117.4451  173.3387  153.3017 H        30        0    0.0000
    459 H         118.4064  171.8763  153.4760 H        30        0    0.0000
    460 C         115.4973  170.8707  157.9623 C.3      31        0    0.0000
    461 C         116.4897  170.8006  156.8118 C.3      31        0    0.0000
    462 C         116.3789  172.1839  156.1580 C.3      31        0    0.0000
    463 C         117.6050  172.6264  155.3493 C.3      31        0    0.0000
    464 C         115.9476  173.1446  157.2852 C.3      31        0    0.0000
    465 C         115.7339  172.2700  158.5342 C.3      31        0    0.0000
    466 C         114.5895  172.7225  159.4445 C.3      31        0    0.0000
    467 H         114.4723  170.7647  157.5866 H        31        0    0.0000
    468 H         115.6735  170.0853  158.7037 H        31        0    0.0000
    469 H         117.4937  170.6089  157.2055 H        31        0    0.0000
    470 H         116.2461  169.9963  156.1105 H        31        0    0.0000
    471 H         115.5401  172.1371  155.4477 H        31        0    0.0000
    472 H         117.7736  173.6970  155.5160 H        31        0    0.0000
    473 H         118.4919  172.1059  155.7297 H        31        0    0.0000
    474 H         115.0184  173.6475  156.9893 H        31        0    0.0000
    475 H         116.6835  173.9305  157.4849 H        31        0    0.0000
    476 H         116.6730  172.2538  159.1064 H        31        0    0.0000
    477 H         113.6521  172.2413  159.1413 H        31        0    0.0000
    478 H         114.7927  172.3962  160.4714 H        31        0    0.0000
    479 C         114.3981  174.2652  159.4398 C.3      32        0    0.0000
    480 C         113.6742  174.8078  160.6803 C.3      32        0    0.0000
    481 H         115.4016  174.7088  159.4099 H        32        0    0.0000
    482 H         113.8923  174.5718  158.5168 H        32        0    0.0000
    483 H         112.6509  174.4200  160.7464 H        32        0    0.0000
    484 H         114.2051  174.4455  161.5700 H        32        0    0.0000
    485 C         110.6145  177.6503  162.3869 C.3      33        0    0.0000
    486 C         111.4502  176.4135  162.0609 C.3      33        0    0.0000
    487 C         112.9187  176.8707  162.0237 C.3      33        0    0.0000
    488 C         113.6531  176.3730  160.7719 C.3      33        0    0.0000
    489 C         112.8550  178.4011  162.1452 C.3      33        0    0.0000
    490 C         111.5893  178.6789  162.9661 C.3      33        0    0.0000
    491 C         111.7707  178.5010  164.4846 C.3      33        0    0.0000
    492 H         110.1850  178.0436  161.4566 H        33        0    0.0000
    493 H         109.7796  177.4184  163.0555 H        33        0    0.0000
    494 H         111.1188  175.9664  161.1173 H        33        0    0.0000
    495 H         111.3215  175.6531  162.8402 H        33        0    0.0000
    496 H         113.4195  176.4689  162.9159 H        33        0    0.0000
    497 H         114.6795  176.7576  160.7542 H        33        0    0.0000
    498 H         113.1526  176.7655  159.8785 H        33        0    0.0000
    499 H         113.7609  178.8148  162.5990 H        33        0    0.0000
    500 H         112.7466  178.8577  161.1528 H        33        0    0.0000
    501 H         111.2212  179.6925  162.7622 H        33        0    0.0000
    502 H         112.8187  178.6269  164.7771 H        33        0    0.0000
    503 H         111.4880  177.4790  164.7645 H        33        0    0.0000
    504 C         107.1308  179.6445  164.9336 C.3      34        0    0.0000
    505 C         108.3974  178.9896  165.4633 C.3      34        0    0.0000
    506 C         109.5025  179.6879  164.6683 C.3      34        0    0.0000
    507 C         110.8828  179.4849  165.2979 C.3      34        0    0.0000
    508 C         109.0347  181.1533  164.6007 C.3      34        0    0.0000
    509 C         107.5097  181.1274  164.8314 C.3      34        0    0.0000
    510 C         106.6795  181.9486  163.8368 C.3      34        0    0.0000
    511 H         106.2785  179.4854  165.6017 H        34        0    0.0000
    512 H         106.8768  179.2148  163.9586 H        34        0    0.0000
    513 H         108.5023  179.1803  166.5384 H        34        0    0.0000
    514 H         108.3953  177.9067  165.3059 H        34        0    0.0000
    515 H         109.5019  179.2802  163.6469 H        34        0    0.0000
    516 H         111.4012  180.4466  165.3909 H        34        0    0.0000
    517 H         110.7630  179.0925  166.3148 H        34        0    0.0000
    518 H         109.5045  181.7564  165.3876 H        34        0    0.0000
    519 H         109.3168  181.6053  163.6440 H        34        0    0.0000
    520 H         107.3349  181.5726  165.8223 H        34        0    0.0000
    521 H         106.4266  181.3190  162.9755 H        34        0    0.0000
    522 H         107.2948  182.7717  163.4541 H        34        0    0.0000
    523 C         105.4016  179.8497  167.0718 C.3      35        0    0.0000
    524 C         105.4442  180.2829  165.6040 C.3      35        0    0.0000
    525 C         104.7870  181.6682  165.5448 C.3      35        0    0.0000
    526 C         105.3686  182.5410  164.4291 C.3      35        0    0.0000
    527 C         104.9998  182.2154  166.9601 C.3      35        0    0.0000
    528 C         104.7206  180.9911  167.8382 C.3      35        0    0.0000
    529 C         105.2280  181.1094  169.2780 C.3      35        0    0.0000
    530 H         104.8520  178.9104  167.1960 H        35        0    0.0000
    531 H         106.4233  179.6783  167.4315 H        35        0    0.0000
    532 H         104.9167  179.5703  164.9609 H        35        0    0.0000
    533 H         106.4860  180.3182  165.2639 H        35        0    0.0000
    534 H         103.7085  181.5290  165.3810 H        35        0    0.0000
    535 H         105.5856  183.5396  164.8267 H        35        0    0.0000
    536 H         104.6329  182.6731  163.6272 H        35        0    0.0000
    537 H         104.3202  183.0435  167.1849 H        35        0    0.0000
    538 H         106.0301  182.5682  167.0942 H        35        0    0.0000
    539 H         103.6371  180.8023  167.8425 H        35        0    0.0000
    540 H         106.3221  181.0454  169.3021 H        35        0    0.0000
    541 H         104.8490  180.2649  169.8659 H        35        0    0.0000
    542 C         102.8064  181.6813  173.1242 C.3      36        0    0.0000
    543 C         103.2328  181.3047  171.7122 C.3      36        0    0.0000
    544 C         104.3844  182.2760  171.4326 C.3      36        0    0.0000
    545 C         104.7721  182.4292  169.9587 C.3      36        0    0.0000
    546 C         103.9999  183.5806  172.1576 C.3      36        0    0.0000
    547 C         102.8302  183.2129  173.0914 C.3      36        0    0.0000
    548 C         102.8371  183.8998  174.4604 C.3      36        0    0.0000
    549 H         101.8139  181.2906  173.3694 H        36        0    0.0000
    550 H         103.5208  181.2734  173.8477 H        36        0    0.0000
    551 H         103.5511  180.2597  171.6463 H        36        0    0.0000
    552 H         102.3948  181.4494  171.0216 H        36        0    0.0000
    553 H         105.2706  181.8771  171.9489 H        36        0    0.0000
    554 H         103.9177  182.8347  169.4040 H        36        0    0.0000
    555 H         105.5800  183.1658  169.8753 H        36        0    0.0000
    556 H         103.6843  184.3727  171.4699 H        36        0    0.0000
    557 H         104.8699  183.9693  172.6978 H        36        0    0.0000
    558 H         101.9081  183.5354  172.5847 H        36        0    0.0000
    559 H         101.8044  184.1212  174.7551 H        36        0    0.0000
    560 H         103.2359  183.2043  175.2084 H        36        0    0.0000
    561 C         104.7572  186.9141  177.6266 C.3      37        0    0.0000
    562 C         104.2593  185.6139  176.9905 C.3      37        0    0.0000
    563 C         103.3854  186.0179  175.7896 C.3      37        0    0.0000
    564 C         103.6658  185.2185  174.5111 C.3      37        0    0.0000
    565 C         103.6508  187.5161  175.6109 C.3      37        0    0.0000
    566 C         103.8996  188.0359  177.0309 C.3      37        0    0.0000
    567 C         102.5904  188.2743  177.8070 C.3      37        0    0.0000
    568 H         104.7292  186.8697  178.7195 H        37        0    0.0000
    569 H         105.8045  187.0701  177.3378 H        37        0    0.0000
    570 H         105.1107  184.9861  176.7053 H        37        0    0.0000
    571 H         103.6618  185.0418  177.7098 H        37        0    0.0000
    572 H         102.3306  185.8894  176.0719 H        37        0    0.0000
    573 H         103.4045  185.8275  173.6375 H        37        0    0.0000
    574 H         104.7344  184.9885  174.4299 H        37        0    0.0000
    575 H         102.8186  188.0234  175.1121 H        37        0    0.0000
    576 H         104.5494  187.6748  175.0006 H        37        0    0.0000
    577 H         104.4726  188.9707  176.9854 H        37        0    0.0000
    578 H         102.7764  188.3456  178.8844 H        37        0    0.0000
    579 H         101.9173  187.4220  177.6557 H        37        0    0.0000
    580 C         101.9911  191.5662  174.1134 C.3      38        0    0.0000
    581 C         101.2697  190.5754  175.0141 C.3      38        0    0.0000
    582 C         102.3631  190.1110  175.9845 C.3      38        0    0.0000
    583 C         101.8590  189.5605  177.3246 C.3      38        0    0.0000
    584 C         103.3587  191.2851  176.0837 C.3      38        0    0.0000
    585 C         102.8576  192.3555  175.0970 C.3      38        0    0.0000
    586 C         103.9638  193.1419  174.3893 C.3      38        0    0.0000
    587 H         102.6093  191.0331  173.3808 H        38        0    0.0000
    588 H         101.2925  192.2091  173.5692 H        38        0    0.0000
    589 H         100.4469  191.0817  175.5303 H        38        0    0.0000
    590 H         100.8456  189.7411  174.4465 H        38        0    0.0000
    591 H         102.8995  189.2857  175.4929 H        38        0    0.0000
    592 H         101.9699  190.3358  178.0920 H        38        0    0.0000
    593 H         100.7861  189.3493  177.2443 H        38        0    0.0000
    594 H         104.3592  190.9288  175.8082 H        38        0    0.0000
    595 H         103.4368  191.6978  177.0950 H        38        0    0.0000
    596 H         102.2074  193.0514  175.6469 H        38        0    0.0000
    597 H         104.9003  192.5717  174.4016 H        38        0    0.0000
    598 H         103.6932  193.2795  173.3356 H        38        0    0.0000
    599 C         103.3676  197.1656  172.4141 C.3      39        0    0.0000
    600 C         103.7722  195.7439  172.7780 C.3      39        0    0.0000
    601 C         103.5270  195.6951  174.2897 C.3      39        0    0.0000
    602 C         104.2057  194.5379  175.0288 C.3      39        0    0.0000
    603 C         103.8746  197.1063  174.8028 C.3      39        0    0.0000
    604 C         103.9780  197.9955  173.5482 C.3      39        0    0.0000
    605 C         103.4218  199.4149  173.6972 C.3      39        0    0.0000
    606 H         103.7534  197.4622  171.4338 H        39        0    0.0000
    607 H         102.2752  197.2441  172.3878 H        39        0    0.0000
    608 H         103.1769  194.9992  172.2406 H        39        0    0.0000
    609 H         104.8262  195.5832  172.5260 H        39        0    0.0000
    610 H         102.4437  195.5648  174.4330 H        39        0    0.0000
    611 H         105.2855  194.7239  175.0704 H        39        0    0.0000
    612 H         103.8496  194.5168  176.0656 H        39        0    0.0000
    613 H         104.8212  197.1380  175.3530 H        39        0    0.0000
    614 H         103.1004  197.4430  175.5007 H        39        0    0.0000
    615 H         105.0502  198.1021  173.3241 H        39        0    0.0000
    616 H         103.3178  199.8649  172.7027 H        39        0    0.0000
    617 H         102.4140  199.3618  174.1258 H        39        0    0.0000
    618 C         103.0122  203.6398  175.7397 C.3      40        0    0.0000
    619 C         102.6740  202.3002  175.0811 C.3      40        0    0.0000
    620 C         103.9487  201.8317  174.3566 C.3      40        0    0.0000
    621 C         104.2936  200.3546  174.5832 C.3      40        0    0.0000
    622 C         105.0455  202.7719  174.8669 C.3      40        0    0.0000
    623 C         104.3291  204.1049  175.1087 C.3      40        0    0.0000
    624 C         104.1277  204.9078  173.8095 C.3      40        0    0.0000
    625 H         102.1954  204.3609  175.6390 H        40        0    0.0000
    626 H         103.1661  203.4763  176.8140 H        40        0    0.0000
    627 H         102.3281  201.5873  175.8376 H        40        0    0.0000
    628 H         101.8597  202.4255  174.3578 H        40        0    0.0000
    629 H         103.8191  202.0113  173.2797 H        40        0    0.0000
    630 H         105.3485  200.1860  174.3360 H        40        0    0.0000
    631 H         104.1686  200.0899  175.6395 H        40        0    0.0000
    632 H         105.8750  202.8575  174.1575 H        40        0    0.0000
    633 H         105.4566  202.4004  175.8144 H        40        0    0.0000
    634 H         104.9034  204.7066  175.8246 H        40        0    0.0000
    635 H         103.2703  204.5315  173.2407 H        40        0    0.0000
    636 H         105.0104  204.7917  173.1695 H        40        0    0.0000
    637 C         104.1508  208.7023  171.1707 C.3      41        0    0.0000
    638 C         103.8613  208.5751  172.6684 C.3      41        0    0.0000
    639 C         103.3153  207.1535  172.8920 C.3      41        0    0.0000
    640 C         103.9314  206.4253  174.0930 C.3      41        0    0.0000
    641 C         103.5845  206.4285  171.5694 C.3      41        0    0.0000
    642 C         103.4497  207.5166  170.4988 C.3      41        0    0.0000
    643 C         101.9805  207.8072  170.1381 C.3      41        0    0.0000
    644 H         103.8448  209.6766  170.7780 H        41        0    0.0000
    645 H         105.2334  208.6171  171.0118 H        41        0    0.0000
    646 H         104.7710  208.7772  173.2444 H        41        0    0.0000
    647 H         103.1122  209.3140  172.9762 H        41        0    0.0000
    648 H         102.2266  207.2198  173.0295 H        41        0    0.0000
    649 H         104.9090  206.8658  174.3223 H        41        0    0.0000
    650 H         103.3063  206.5586  174.9835 H        41        0    0.0000
    651 H         102.8967  205.5910  171.4135 H        41        0    0.0000
    652 H         104.6056  206.0260  171.5554 H        41        0    0.0000
    653 H         103.9944  207.2135  169.5956 H        41        0    0.0000
    654 H         101.8979  208.6915  169.4966 H        41        0    0.0000
    655 H         101.4171  208.0239  171.0534 H        41        0    0.0000
    656 C         104.6286  205.0826  169.8376 C.3      42        0    0.0000
    657 C         103.2885  205.3913  170.5034 C.3      42        0    0.0000
    658 C         102.2268  205.3657  169.3902 C.3      42        0    0.0000
    659 C         101.3085  206.5942  169.4317 C.3      42        0    0.0000
    660 C         103.0294  205.2276  168.0874 C.3      42        0    0.0000
    661 C         104.2930  204.4532  168.4831 C.3      42        0    0.0000
    662 C         104.0905  202.9311  168.5957 C.3      42        0    0.0000
    663 H         105.1689  206.0239  169.6745 H        42        0    0.0000
    664 H         105.2639  204.4499  170.4653 H        42        0    0.0000
    665 H         103.3345  206.3526  171.0268 H        42        0    0.0000
    666 H         103.0532  204.6271  171.2536 H        42        0    0.0000
    667 H         101.6190  204.4598  169.5250 H        42        0    0.0000
    668 H         100.3666  206.3489  169.9359 H        42        0    0.0000
    669 H         101.0515  206.8889  168.4071 H        42        0    0.0000
    670 H         102.4518  204.7339  167.2999 H        42        0    0.0000
    671 H         103.3183  206.2177  167.7113 H        42        0    0.0000
    672 H         105.1013  204.6585  167.7697 H        42        0    0.0000
    673 H         103.2440  202.6900  169.2477 H        42        0    0.0000
    674 H         104.9786  202.4820  169.0567 H        42        0    0.0000
    675 C         103.8817  202.2654  167.2061 C.3      43        0    0.0000
    676 C         104.0102  200.7354  167.2216 C.3      43        0    0.0000
    677 H         102.8635  202.5182  166.8835 H        43        0    0.0000
    678 H         104.5631  202.7155  166.4747 H        43        0    0.0000
    679 H         104.9386  200.4181  167.7110 H        43        0    0.0000
    680 H         103.1852  200.3305  167.8216 H        43        0    0.0000
    681 C         102.2558  202.4994  163.3896 C.3      44        0    0.0000
    682 C         102.4527  201.9677  164.8024 C.3      44        0    0.0000
    683 C         103.6834  201.0663  164.6599 C.3      44        0    0.0000
    684 C         103.9068  200.0729  165.8042 C.3      44        0    0.0000
    685 C         103.5712  200.4456  163.2536 C.3      44        0    0.0000
    686 C         102.4841  201.2572  162.5221 C.3      44        0    0.0000
    687 C         102.7506  201.5311  161.0388 C.3      44        0    0.0000
    688 H         101.2565  202.9223  163.2474 H        44        0    0.0000
    689 H         102.9904  203.2859  163.1845 H        44        0    0.0000
    690 H         102.6151  202.7745  165.5238 H        44        0    0.0000
    691 H         101.5646  201.4066  165.1136 H        44        0    0.0000
    692 H         104.5629  201.7276  164.6440 H        44        0    0.0000
    693 H         103.0851  199.3471  165.8138 H        44        0    0.0000
    694 H         104.8256  199.5061  165.6125 H        44        0    0.0000
    695 H         103.2854  199.3884  163.2765 H        44        0    0.0000
    696 H         104.5451  200.4916  162.7544 H        44        0    0.0000
    697 H         101.5600  200.6615  162.5687 H        44        0    0.0000
    698 H         101.9146  202.1077  160.6254 H        44        0    0.0000
    699 H         103.6438  202.1600  160.9452 H        44        0    0.0000
    700 C         102.9716  201.7011  156.6953 C.3      45        0    0.0000
    701 C         102.7514  201.8464  158.2034 C.3      45        0    0.0000
    702 C         102.4672  200.4355  158.7350 C.3      45        0    0.0000
    703 C         102.9490  200.2485  160.1763 C.3      45        0    0.0000
    704 C         103.1574  199.5310  157.7086 C.3      45        0    0.0000
    705 C         102.8111  200.2084  156.3785 C.3      45        0    0.0000
    706 C         103.6762  199.7685  155.1942 C.3      45        0    0.0000
    707 H         102.2545  202.3027  156.1264 H        45        0    0.0000
    708 H         103.9747  202.0607  156.4366 H        45        0    0.0000
    709 H         101.9193  202.5239  158.4229 H        45        0    0.0000
    710 H         103.6496  202.2753  158.6637 H        45        0    0.0000
    711 H         101.3825  200.2616  158.6824 H        45        0    0.0000
    712 H         104.0155  199.9933  160.1712 H        45        0    0.0000
    713 H         102.4252  199.4080  160.6464 H        45        0    0.0000
    714 H         102.7844  198.5028  157.7532 H        45        0    0.0000
    715 H         104.2427  199.5117  157.8689 H        45        0    0.0000
    716 H         101.7517  200.0180  156.1533 H        45        0    0.0000
    717 H         103.0538  199.3041  154.4204 H        45        0    0.0000
    718 H         104.3870  199.0037  155.5294 H        45        0    0.0000
    719 C         103.3288  201.4285  150.9970 C.3      46        0    0.0000
    720 C         103.1274  200.7998  152.3673 C.3      46        0    0.0000
    721 C         104.4951  200.9650  153.0420 C.3      46        0    0.0000
    722 C         104.4753  200.9483  154.5757 C.3      46        0    0.0000
    723 C         105.1274  202.2179  152.4018 C.3      46        0    0.0000
    724 C         104.1442  202.6841  151.3125 C.3      46        0    0.0000
    725 C         104.8047  203.2723  150.0632 C.3      46        0    0.0000
    726 H         103.8882  200.7466  150.3449 H        46        0    0.0000
    727 H         102.3773  201.6643  150.5107 H        46        0    0.0000
    728 H         102.3354  201.3345  152.9026 H        46        0    0.0000
    729 H         102.8315  199.7485  152.2950 H        46        0    0.0000
    730 H         105.1121  200.1087  152.7311 H        46        0    0.0000
    731 H         105.5071  200.9045  154.9443 H        46        0    0.0000
    732 H         104.0520  201.8923  154.9388 H        46        0    0.0000
    733 H         106.0987  201.9463  151.9697 H        46        0    0.0000
    734 H         105.3147  203.0206  153.1227 H        46        0    0.0000
    735 H         103.4693  203.4305  151.7563 H        46        0    0.0000
    736 H         105.8232  203.6056  150.2951 H        46        0    0.0000
    737 H         104.8957  202.4909  149.2994 H        46        0    0.0000
    738 C         104.8545  205.1408  145.8266 C.3      47        0    0.0000
    739 C         105.2831  204.7607  147.2370 C.3      47        0    0.0000
    740 C         103.9486  204.4820  147.9363 C.3      47        0    0.0000
    741 C         104.0002  204.4614  149.4670 C.3      47        0    0.0000
    742 C         102.9505  205.4808  147.3185 C.3      47        0    0.0000
    743 C         103.6492  206.0549  146.0705 C.3      47        0    0.0000
    744 C         102.7451  206.2887  144.8563 C.3      47        0    0.0000
    745 H         105.6536  205.6510  145.2800 H        47        0    0.0000
    746 H         104.5815  204.2393  145.2672 H        47        0    0.0000
    747 H         105.9408  203.8859  147.2426 H        47        0    0.0000
    748 H         105.8232  205.5954  147.6972 H        47        0    0.0000
    749 H         103.6268  203.4780  147.6210 H        47        0    0.0000
    750 H         104.4423  205.3995  149.8230 H        47        0    0.0000
    751 H         102.9770  204.4264  149.8597 H        47        0    0.0000
    752 H         102.6888  206.2976  147.9997 H        47        0    0.0000
    753 H         102.0142  204.9638  147.0822 H        47        0    0.0000
    754 H         104.0486  207.0396  146.3569 H        47        0    0.0000
    755 H         102.8507  207.3291  144.5264 H        47        0    0.0000
    756 H         103.0886  205.6589  144.0271 H        47        0    0.0000
    757 C          99.2235  206.2439  141.9157 C.3      48        0    0.0000
    758 C         100.5626  206.0632  142.6140 C.3      48        0    0.0000
    759 C         100.2906  206.5507  144.0427 C.3      48        0    0.0000
    760 C         101.2367  205.9964  145.1154 C.3      48        0    0.0000
    761 C          98.7890  206.2988  144.2905 C.3      48        0    0.0000
    762 C          98.2215  205.7585  142.9652 C.3      48        0    0.0000
    763 C          96.7926  206.2077  142.6501 C.3      48        0    0.0000
    764 H          99.0614  207.3012  141.6729 H        48        0    0.0000
    765 H          99.1639  205.6662  140.9882 H        48        0    0.0000
    766 H         100.8507  205.0068  142.5857 H        48        0    0.0000
    767 H         101.3570  206.6398  142.1297 H        48        0    0.0000
    768 H         100.4295  207.6421  144.0417 H        48        0    0.0000
    769 H         100.9591  206.4202  146.0879 H        48        0    0.0000
    770 H         101.0939  204.9120  145.1933 H        48        0    0.0000
    771 H          98.3099  207.2452  144.5707 H        48        0    0.0000
    772 H          98.6006  205.5943  145.1075 H        48        0    0.0000
    773 H          98.2617  204.6599  142.9973 H        48        0    0.0000
    774 H          96.2974  205.4705  142.0070 H        48        0    0.0000
    775 H          96.2137  206.2531  143.5802 H        48        0    0.0000
    776 C          94.3692  209.7764  141.3219 C.3      49        0    0.0000
    777 C          94.3278  208.2632  141.5512 C.3      49        0    0.0000
    778 C          95.6062  207.6917  140.9282 C.3      49        0    0.0000
    779 C          96.7434  207.6014  141.9633 C.3      49        0    0.0000
    780 C          95.8698  208.6729  139.7789 C.3      49        0    0.0000
    781 C          95.5470  210.0472  140.3711 C.3      49        0    0.0000
    782 C          95.2622  211.0957  139.2898 C.3      49        0    0.0000
    783 H          93.4118  210.1143  140.9090 H        49        0    0.0000
    784 H          94.5187  210.3060  142.2697 H        49        0    0.0000
    785 H          93.4550  207.8504  141.0296 H        49        0    0.0000
    786 H          94.2150  208.0133  142.6111 H        49        0    0.0000
    787 H          95.4087  206.6890  140.5279 H        49        0    0.0000
    788 H          96.5863  208.3613  142.7383 H        49        0    0.0000
    789 H          97.7148  207.8179  141.5062 H        49        0    0.0000
    790 H          95.1901  208.4484  138.9465 H        49        0    0.0000
    791 H          96.8911  208.6267  139.3893 H        49        0    0.0000
    792 H          96.4071  210.3770  140.9707 H        49        0    0.0000
    793 H          96.1435  211.7277  139.1299 H        49        0    0.0000
    794 H          94.4544  211.7560  139.6268 H        49        0    0.0000
    795 C          94.8419  210.4390  137.9436 C.3      50        0    0.0000
    796 C          93.3515  210.5978  137.6106 C.3      50        0    0.0000
    797 H          95.4217  210.9348  137.1546 H        50        0    0.0000
    798 H          95.1418  209.3846  137.9374 H        50        0    0.0000
    799 H          92.7617  210.8066  138.5108 H        50        0    0.0000
    800 H          93.2405  211.4699  136.9535 H        50        0    0.0000
    801 C          93.9572  208.6033  133.3451 C.3      51        0    0.0000
    802 C          94.2548  209.0142  134.7790 C.3      51        0    0.0000
    803 C          92.8846  209.4393  135.3218 C.3      51        0    0.0000
    804 C          92.7354  209.3746  136.8471 C.3      51        0    0.0000
    805 C          91.8477  208.6258  134.5202 C.3      51        0    0.0000
    806 C          92.6470  207.8241  133.4767 C.3      51        0    0.0000
    807 C          91.9431  207.6467  132.1292 C.3      51        0    0.0000
    808 H          93.8279  209.4915  132.7146 H        51        0    0.0000
    809 H          94.7600  207.9941  132.9185 H        51        0    0.0000
    810 H          94.6691  208.1604  135.3260 H        51        0    0.0000
    811 H          94.9844  209.8286  134.8275 H        51        0    0.0000
    812 H          92.7410  210.4935  135.0413 H        51        0    0.0000
    813 H          91.6701  209.3050  137.0977 H        51        0    0.0000
    814 H          93.2051  208.4544  137.2143 H        51        0    0.0000
    815 H          91.1471  209.3182  134.0370 H        51        0    0.0000
    816 H          91.2495  207.9560  135.1470 H        51        0    0.0000
    817 H          92.8751  206.8367  133.9040 H        51        0    0.0000
    818 H          92.6826  207.5100  131.3312 H        51        0    0.0000
    819 H          91.3359  206.7341  132.1550 H        51        0    0.0000
    820 C          92.2034  211.8951  132.0953 C.3      52        0    0.0000
    821 C          92.3391  210.6529  132.9801 C.3      52        0    0.0000
    822 C          91.0033  209.9066  132.8932 C.3      52        0    0.0000
    823 C          91.0230  208.8484  131.7742 C.3      52        0    0.0000
    824 C          90.0092  211.0527  132.6662 C.3      52        0    0.0000
    825 C          90.7239  211.9870  131.6866 C.3      52        0    0.0000
    826 C          90.1461  213.4067  131.7079 C.3      52        0    0.0000
    827 H          92.5413  212.7803  132.6461 H        52        0    0.0000
    828 H          92.8369  211.8054  131.2054 H        52        0    0.0000
    829 H          92.5080  210.9736  134.0159 H        52        0    0.0000
    830 H          93.1972  210.0373  132.6917 H        52        0    0.0000
    831 H          90.7918  209.4102  133.8490 H        52        0    0.0000
    832 H          91.3974  209.3071  130.8510 H        52        0    0.0000
    833 H          90.0140  208.4834  131.5546 H        52        0    0.0000
    834 H          89.8255  211.5681  133.6180 H        52        0    0.0000
    835 H          89.0402  210.7220  132.2807 H        52        0    0.0000
    836 H          90.6183  211.5736  130.6736 H        52        0    0.0000
    837 H          90.7056  214.0563  131.0248 H        52        0    0.0000
    838 H          90.2584  213.8303  132.7130 H        52        0    0.0000
    839 C          88.6386  213.4236  131.3243 C.3      53        0    0.0000
    840 C          88.1013  214.8170  130.9673 C.3      53        0    0.0000
    841 H          88.0849  213.0590  132.1990 H        53        0    0.0000
    842 H          88.4550  212.7062  130.5158 H        53        0    0.0000
    843 H          88.0882  215.4217  131.8832 H        53        0    0.0000
    844 H          88.7641  215.3313  130.2616 H        53        0    0.0000
    845 C          87.0411  217.7397  128.0640 C.3      54        0    0.0000
    846 C          87.5682  216.8068  129.1436 C.3      54        0    0.0000
    847 C          86.3079  216.0743  129.6086 C.3      54        0    0.0000
    848 C          86.6365  214.8109  130.4079 C.3      54        0    0.0000
    849 C          85.5265  215.8267  128.3053 C.3      54        0    0.0000
    850 C          86.0448  216.8666  127.2907 C.3      54        0    0.0000
    851 C          84.9611  217.6331  126.5220 C.3      54        0    0.0000
    852 H          87.8432  218.1134  127.4198 H        54        0    0.0000
    853 H          86.5570  218.6040  128.5315 H        54        0    0.0000
    854 H          88.2981  216.1075  128.7179 H        54        0    0.0000
    855 H          88.0527  217.3545  129.9576 H        54        0    0.0000
    856 H          85.7212  216.7621  130.2349 H        54        0    0.0000
    857 H          85.9324  214.6964  131.2406 H        54        0    0.0000
    858 H          86.5089  213.9320  129.7649 H        54        0    0.0000
    859 H          85.7174  214.8199  127.9134 H        54        0    0.0000
    860 H          84.4481  215.8989  128.4815 H        54        0    0.0000
    861 H          86.6227  216.3096  126.5382 H        54        0    0.0000
    862 H          84.6804  218.5260  127.0932 H        54        0    0.0000
    863 H          84.0628  217.0079  126.4551 H        54        0    0.0000
    864 C          82.2883  219.2103  123.2126 C.3      55        0    0.0000
    865 C          82.9680  218.8405  124.5221 C.3      55        0    0.0000
    866 C          84.2238  218.0828  124.0727 C.3      55        0    0.0000
    867 C          85.3755  218.0645  125.0858 C.3      55        0    0.0000
    868 C          84.5756  218.6471  122.6808 C.3      55        0    0.0000
    869 C          83.4594  219.6479  122.3303 C.3      55        0    0.0000
    870 C          83.0805  219.6910  120.8479 C.3      55        0    0.0000
    871 H          81.7787  218.3362  122.7891 H        55        0    0.0000
    872 H          81.5498  220.0068  123.3450 H        55        0    0.0000
    873 H          83.2123  219.7522  125.0780 H        55        0    0.0000
    874 H          82.3238  218.2240  125.1568 H        55        0    0.0000
    875 H          83.9288  217.0339  123.9205 H        55        0    0.0000
    876 H          86.1551  217.3825  124.7258 H        55        0    0.0000
    877 H          85.8280  219.0622  125.1319 H        55        0    0.0000
    878 H          84.6092  217.8214  121.9591 H        55        0    0.0000
    879 H          85.5557  219.1347  122.6501 H        55        0    0.0000
    880 H          83.7807  220.6480  122.6558 H        55        0    0.0000
    881 H          82.5159  218.7914  120.5755 H        55        0    0.0000
    882 H          82.4169  220.5453  120.6683 H        55        0    0.0000
    883 C          84.3204  219.8183  119.9189 C.3      56        0    0.0000
    884 C          84.2872  221.0472  118.9991 C.3      56        0    0.0000
    885 H          84.3366  218.9208  119.2875 H        56        0    0.0000
    886 H          85.2366  219.7950  120.5204 H        56        0    0.0000
    887 H          84.0125  220.7107  117.9911 H        56        0    0.0000
    888 H          83.5152  221.7596  119.3129 H        56        0    0.0000
    889 C          89.2652  220.9875  118.4488 C.3      57        0    0.0000
    890 C          87.9159  221.1934  117.7561 C.3      57        0    0.0000
    891 C          86.8329  220.7944  118.7745 C.3      57        0    0.0000
    892 C          85.6652  221.7841  118.8704 C.3      57        0    0.0000
    893 C          87.5883  220.6533  120.0998 C.3      57        0    0.0000
    894 C          88.9790  220.1491  119.6994 C.3      57        0    0.0000
    895 C          88.9988  218.6326  119.4292 C.3      57        0    0.0000
    896 H          90.0040  220.5403  117.7769 H        57        0    0.0000
    897 H          89.6585  221.9657  118.7538 H        57        0    0.0000
    898 H          87.8219  222.2318  117.4196 H        57        0    0.0000
    899 H          87.8427  220.5568  116.8665 H        57        0    0.0000
    900 H          86.4451  219.8043  118.4955 H        57        0    0.0000
    901 H          85.8019  222.4228  119.7512 H        57        0    0.0000
    902 H          85.6517  222.4462  117.9969 H        57        0    0.0000
    903 H          87.0757  219.9799  120.7944 H        57        0    0.0000
    904 H          87.6812  221.6298  120.5925 H        57        0    0.0000
    905 H          89.6994  220.3883  120.4919 H        57        0    0.0000
    906 H          88.4429  218.3857  118.5179 H        57        0    0.0000
    907 H          88.5039  218.1092  120.2559 H        57        0    0.0000
    908 H          90.0159  218.2498  119.3459 H        57        0    0.0000
    909 H         133.5294  226.4666   85.5086 H         0        0    0.0000
@<TRIPOS>BOND
     1     1     2      1
     2     1     6      1
     3     1     8      1
     4     1     9      1
     5     2     3      1
     6     2    10      1
     7     2    11      1
     8     3     4      1
     9     3     5      1
    10     3    12      1
    11     4    13      1
    12     4    14      1
    13     4   909      H
    14     5     6      1
    15     5    15      1
    16     5    16      1
    17     6     7      1
    18     6    17      1
    19     7    18      1
    20     7    19      1
    21     7    23      1
    22    20    21      1
    23    20    25      1
    24    20    27      1
    25    20    28      1
    26    21    22      1
    27    21    29      1
    28    21    30      1
    29    22    23      1
    30    22    24      1
    31    22    31      1
    32    23    32      1
    33    23    33      1
    34    24    25      1
    35    24    34      1
    36    24    35      1
    37    25    26      1
    38    25    36      1
    39    26    37      1
    40    26    38      1
    41    26    39      1
    42    39    40      1
    43    39    41      1
    44    39    42      1
    45    40    43      1
    46    40    44      1
    47    40    48      1
    48    45    46      1
    49    45    50      1
    50    45    52      1
    51    45    53      1
    52    46    47      1
    53    46    54      1
    54    46    55      1
    55    47    48      1
    56    47    49      1
    57    47    56      1
    58    48    57      1
    59    48    58      1
    60    49    50      1
    61    49    59      1
    62    49    60      1
    63    50    51      1
    64    50    61      1
    65    51    62      1
    66    51    63      1
    67    51    64      1
    68    64    65      1
    69    64    66      1
    70    64    67      1
    71    65    68      1
    72    65    69      1
    73    65    73      1
    74    70    71      1
    75    70    75      1
    76    70    77      1
    77    70    78      1
    78    71    72      1
    79    71    79      1
    80    71    80      1
    81    72    73      1
    82    72    74      1
    83    72    81      1
    84    73    82      1
    85    73    83      1
    86    74    75      1
    87    74    84      1
    88    74    85      1
    89    75    76      1
    90    75    86      1
    91    76    87      1
    92    76    88      1
    93    76    92      1
    94    89    90      1
    95    89    94      1
    96    89    96      1
    97    89    97      1
    98    90    91      1
    99    90    98      1
   100    90    99      1
   101    91    92      1
   102    91    93      1
   103    91   100      1
   104    92   101      1
   105    92   102      1
   106    93    94      1
   107    93   103      1
   108    93   104      1
   109    94    95      1
   110    94   105      1
   111    95   106      1
   112    95   107      1
   113    95   108      1
   114   108   109      1
   115   108   110      1
   116   108   111      1
   117   109   112      1
   118   109   113      1
   119   109   114      1
   120   114   115      1
   121   114   116      1
   122   114   117      1
   123   115   118      1
   124   115   119      1
   125   115   120      1
   126   120   121      1
   127   120   122      1
   128   120   123      1
   129   121   124      1
   130   121   125      1
   131   121   126      1
   132   126   127      1
   133   126   128      1
   134   126   129      1
   135   127   130      1
   136   127   131      1
   137   127   135      1
   138   132   133      1
   139   132   137      1
   140   132   139      1
   141   132   140      1
   142   133   134      1
   143   133   141      1
   144   133   142      1
   145   134   135      1
   146   134   136      1
   147   134   143      1
   148   135   144      1
   149   135   145      1
   150   136   137      1
   151   136   146      1
   152   136   147      1
   153   137   138      1
   154   137   148      1
   155   138   149      1
   156   138   150      1
   157   138   154      1
   158   151   152      1
   159   151   156      1
   160   151   158      1
   161   151   159      1
   162   152   153      1
   163   152   160      1
   164   152   161      1
   165   153   154      1
   166   153   155      1
   167   153   162      1
   168   154   163      1
   169   154   164      1
   170   155   156      1
   171   155   165      1
   172   155   166      1
   173   156   157      1
   174   156   167      1
   175   157   168      1
   176   157   169      1
   177   157   170      1
   178   170   171      1
   179   170   172      1
   180   170   173      1
   181   171   174      1
   182   171   175      1
   183   171   179      1
   184   176   177      1
   185   176   181      1
   186   176   183      1
   187   176   184      1
   188   177   178      1
   189   177   185      1
   190   177   186      1
   191   178   179      1
   192   178   180      1
   193   178   187      1
   194   179   188      1
   195   179   189      1
   196   180   181      1
   197   180   190      1
   198   180   191      1
   199   181   182      1
   200   181   192      1
   201   182   193      1
   202   182   194      1
   203   182   195      1
   204   195   196      1
   205   195   197      1
   206   195   198      1
   207   196   199      1
   208   196   200      1
   209   196   204      1
   210   201   202      1
   211   201   206      1
   212   201   208      1
   213   201   209      1
   214   202   203      1
   215   202   210      1
   216   202   211      1
   217   203   204      1
   218   203   205      1
   219   203   212      1
   220   204   213      1
   221   204   214      1
   222   205   206      1
   223   205   215      1
   224   205   216      1
   225   206   207      1
   226   206   217      1
   227   207   218      1
   228   207   219      1
   229   207   223      1
   230   220   221      1
   231   220   225      1
   232   220   227      1
   233   220   228      1
   234   221   222      1
   235   221   229      1
   236   221   230      1
   237   222   223      1
   238   222   224      1
   239   222   231      1
   240   223   232      1
   241   223   233      1
   242   224   225      1
   243   224   234      1
   244   224   235      1
   245   225   226      1
   246   225   236      1
   247   226   237      1
   248   226   238      1
   249   226   242      1
   250   239   240      1
   251   239   244      1
   252   239   246      1
   253   239   247      1
   254   240   241      1
   255   240   248      1
   256   240   249      1
   257   241   242      1
   258   241   243      1
   259   241   250      1
   260   242   251      1
   261   242   252      1
   262   243   244      1
   263   243   253      1
   264   243   254      1
   265   244   245      1
   266   244   255      1
   267   245   256      1
   268   245   257      1
   269   245   261      1
   270   258   259      1
   271   258   263      1
   272   258   265      1
   273   258   266      1
   274   259   260      1
   275   259   267      1
   276   259   268      1
   277   260   261      1
   278   260   262      1
   279   260   269      1
   280   261   270      1
   281   261   271      1
   282   262   263      1
   283   262   272      1
   284   262   273      1
   285   263   264      1
   286   263   274      1
   287   264   275      1
   288   264   276      1
   289   264   277      1
   290   277   278      1
   291   277   279      1
   292   277   280      1
   293   278   281      1
   294   278   282      1
   295   278   286      1
   296   283   284      1
   297   283   288      1
   298   283   290      1
   299   283   291      1
   300   284   285      1
   301   284   292      1
   302   284   293      1
   303   285   286      1
   304   285   287      1
   305   285   294      1
   306   286   295      1
   307   286   296      1
   308   287   288      1
   309   287   297      1
   310   287   298      1
   311   288   289      1
   312   288   299      1
   313   289   300      1
   314   289   301      1
   315   289   305      1
   316   302   303      1
   317   302   307      1
   318   302   309      1
   319   302   310      1
   320   303   304      1
   321   303   311      1
   322   303   312      1
   323   304   305      1
   324   304   306      1
   325   304   313      1
   326   305   314      1
   327   305   315      1
   328   306   307      1
   329   306   316      1
   330   306   317      1
   331   307   308      1
   332   307   318      1
   333   308   319      1
   334   308   320      1
   335   308   324      1
   336   321   322      1
   337   321   326      1
   338   321   328      1
   339   321   329      1
   340   322   323      1
   341   322   330      1
   342   322   331      1
   343   323   324      1
   344   323   325      1
   345   323   332      1
   346   324   333      1
   347   324   334      1
   348   325   326      1
   349   325   335      1
   350   325   336      1
   351   326   327      1
   352   326   337      1
   353   327   338      1
   354   327   339      1
   355   327   343      1
   356   340   341      1
   357   340   345      1
   358   340   347      1
   359   340   348      1
   360   341   342      1
   361   341   349      1
   362   341   350      1
   363   342   343      1
   364   342   344      1
   365   342   351      1
   366   343   352      1
   367   343   353      1
   368   344   345      1
   369   344   354      1
   370   344   355      1
   371   345   346      1
   372   345   356      1
   373   346   357      1
   374   346   358      1
   375   346   362      1
   376   359   360      1
   377   359   364      1
   378   359   366      1
   379   359   367      1
   380   360   361      1
   381   360   368      1
   382   360   369      1
   383   361   362      1
   384   361   363      1
   385   361   370      1
   386   362   371      1
   387   362   372      1
   388   363   364      1
   389   363   373      1
   390   363   374      1
   391   364   365      1
   392   364   375      1
   393   365   376      1
   394   365   377      1
   395   365   381      1
   396   378   379      1
   397   378   383      1
   398   378   385      1
   399   378   386      1
   400   379   380      1
   401   379   387      1
   402   379   388      1
   403   380   381      1
   404   380   382      1
   405   380   389      1
   406   381   390      1
   407   381   391      1
   408   382   383      1
   409   382   392      1
   410   382   393      1
   411   383   384      1
   412   383   394      1
   413   384   395      1
   414   384   396      1
   415   384   397      1
   416   397   398      1
   417   397   399      1
   418   397   400      1
   419   398   401      1
   420   398   402      1
   421   398   406      1
   422   403   404      1
   423   403   408      1
   424   403   410      1
   425   403   411      1
   426   404   405      1
   427   404   412      1
   428   404   413      1
   429   405   406      1
   430   405   407      1
   431   405   414      1
   432   406   415      1
   433   406   416      1
   434   407   408      1
   435   407   417      1
   436   407   418      1
   437   408   409      1
   438   408   419      1
   439   409   420      1
   440   409   421      1
   441   409   425      1
   442   422   423      1
   443   422   427      1
   444   422   429      1
   445   422   430      1
   446   423   424      1
   447   423   431      1
   448   423   432      1
   449   424   425      1
   450   424   426      1
   451   424   433      1
   452   425   434      1
   453   425   435      1
   454   426   427      1
   455   426   436      1
   456   426   437      1
   457   427   428      1
   458   427   438      1
   459   428   439      1
   460   428   440      1
   461   428   444      1
   462   441   442      1
   463   441   446      1
   464   441   448      1
   465   441   449      1
   466   442   443      1
   467   442   450      1
   468   442   451      1
   469   443   444      1
   470   443   445      1
   471   443   452      1
   472   444   453      1
   473   444   454      1
   474   445   446      1
   475   445   455      1
   476   445   456      1
   477   446   447      1
   478   446   457      1
   479   447   458      1
   480   447   459      1
   481   447   463      1
   482   460   461      1
   483   460   465      1
   484   460   467      1
   485   460   468      1
   486   461   462      1
   487   461   469      1
   488   461   470      1
   489   462   463      1
   490   462   464      1
   491   462   471      1
   492   463   472      1
   493   463   473      1
   494   464   465      1
   495   464   474      1
   496   464   475      1
   497   465   466      1
   498   465   476      1
   499   466   477      1
   500   466   478      1
   501   466   479      1
   502   479   480      1
   503   479   481      1
   504   479   482      1
   505   480   483      1
   506   480   484      1
   507   480   488      1
   508   485   486      1
   509   485   490      1
   510   485   492      1
   511   485   493      1
   512   486   487      1
   513   486   494      1
   514   486   495      1
   515   487   488      1
   516   487   489      1
   517   487   496      1
   518   488   497      1
   519   488   498      1
   520   489   490      1
   521   489   499      1
   522   489   500      1
   523   490   491      1
   524   490   501      1
   525   491   502      1
   526   491   503      1
   527   491   507      1
   528   504   505      1
   529   504   509      1
   530   504   511      1
   531   504   512      1
   532   505   506      1
   533   505   513      1
   534   505   514      1
   535   506   507      1
   536   506   508      1
   537   506   515      1
   538   507   516      1
   539   507   517      1
   540   508   509      1
   541   508   518      1
   542   508   519      1
   543   509   510      1
   544   509   520      1
   545   510   521      1
   546   510   522      1
   547   510   526      1
   548   523   524      1
   549   523   528      1
   550   523   530      1
   551   523   531      1
   552   524   525      1
   553   524   532      1
   554   524   533      1
   555   525   526      1
   556   525   527      1
   557   525   534      1
   558   526   535      1
   559   526   536      1
   560   527   528      1
   561   527   537      1
   562   527   538      1
   563   528   529      1
   564   528   539      1
   565   529   540      1
   566   529   541      1
   567   529   545      1
   568   542   543      1
   569   542   547      1
   570   542   549      1
   571   542   550      1
   572   543   544      1
   573   543   551      1
   574   543   552      1
   575   544   545      1
   576   544   546      1
   577   544   553      1
   578   545   554      1
   579   545   555      1
   580   546   547      1
   581   546   556      1
   582   546   557      1
   583   547   548      1
   584   547   558      1
   585   548   559      1
   586   548   560      1
   587   548   564      1
   588   561   562      1
   589   561   566      1
   590   561   568      1
   591   561   569      1
   592   562   563      1
   593   562   570      1
   594   562   571      1
   595   563   564      1
   596   563   565      1
   597   563   572      1
   598   564   573      1
   599   564   574      1
   600   565   566      1
   601   565   575      1
   602   565   576      1
   603   566   567      1
   604   566   577      1
   605   567   578      1
   606   567   579      1
   607   567   583      1
   608   580   581      1
   609   580   585      1
   610   580   587      1
   611   580   588      1
   612   581   582      1
   613   581   589      1
   614   581   590      1
   615   582   583      1
   616   582   584      1
   617   582   591      1
   618   583   592      1
   619   583   593      1
   620   584   585      1
   621   584   594      1
   622   584   595      1
   623   585   586      1
   624   585   596      1
   625   586   597      1
   626   586   598      1
   627   586   602      1
   628   599   600      1
   629   599   604      1
   630   599   606      1
   631   599   607      1
   632   600   601      1
   633   600   608      1
   634   600   609      1
   635   601   602      1
   636   601   603      1
   637   601   610      1
   638   602   611      1
   639   602   612      1
   640   603   604      1
   641   603   613      1
   642   603   614      1
   643   604   605      1
   644   604   615      1
   645   605   616      1
   646   605   617      1
   647   605   621      1
   648   618   619      1
   649   618   623      1
   650   618   625      1
   651   618   626      1
   652   619   620      1
   653   619   627      1
   654   619   628      1
   655   620   621      1
   656   620   622      1
   657   620   629      1
   658   621   630      1
   659   621   631      1
   660   622   623      1
   661   622   632      1
   662   622   633      1
   663   623   624      1
   664   623   634      1
   665   624   635      1
   666   624   636      1
   667   624   640      1
   668   637   638      1
   669   637   642      1
   670   637   644      1
   671   637   645      1
   672   638   639      1
   673   638   646      1
   674   638   647      1
   675   639   640      1
   676   639   641      1
   677   639   648      1
   678   640   649      1
   679   640   650      1
   680   641   642      1
   681   641   651      1
   682   641   652      1
   683   642   643      1
   684   642   653      1
   685   643   654      1
   686   643   655      1
   687   643   659      1
   688   656   657      1
   689   656   661      1
   690   656   663      1
   691   656   664      1
   692   657   658      1
   693   657   665      1
   694   657   666      1
   695   658   659      1
   696   658   660      1
   697   658   667      1
   698   659   668      1
   699   659   669      1
   700   660   661      1
   701   660   670      1
   702   660   671      1
   703   661   662      1
   704   661   672      1
   705   662   673      1
   706   662   674      1
   707   662   675      1
   708   675   676      1
   709   675   677      1
   710   675   678      1
   711   676   679      1
   712   676   680      1
   713   676   684      1
   714   681   682      1
   715   681   686      1
   716   681   688      1
   717   681   689      1
   718   682   683      1
   719   682   690      1
   720   682   691      1
   721   683   684      1
   722   683   685      1
   723   683   692      1
   724   684   693      1
   725   684   694      1
   726   685   686      1
   727   685   695      1
   728   685   696      1
   729   686   687      1
   730   686   697      1
   731   687   698      1
   732   687   699      1
   733   687   703      1
   734   700   701      1
   735   700   705      1
   736   700   707      1
   737   700   708      1
   738   701   702      1
   739   701   709      1
   740   701   710      1
   741   702   703      1
   742   702   704      1
   743   702   711      1
   744   703   712      1
   745   703   713      1
   746   704   705      1
   747   704   714      1
   748   704   715      1
   749   705   706      1
   750   705   716      1
   751   706   717      1
   752   706   718      1
   753   706   722      1
   754   719   720      1
   755   719   724      1
   756   719   726      1
   757   719   727      1
   758   720   721      1
   759   720   728      1
   760   720   729      1
   761   721   722      1
   762   721   723      1
   763   721   730      1
   764   722   731      1
   765   722   732      1
   766   723   724      1
   767   723   733      1
   768   723   734      1
   769   724   725      1
   770   724   735      1
   771   725   736      1
   772   725   737      1
   773   725   741      1
   774   738   739      1
   775   738   743      1
   776   738   745      1
   777   738   746      1
   778   739   740      1
   779   739   747      1
   780   739   748      1
   781   740   741      1
   782   740   742      1
   783   740   749      1
   784   741   750      1
   785   741   751      1
   786   742   743      1
   787   742   752      1
   788   742   753      1
   789   743   744      1
   790   743   754      1
   791   744   755      1
   792   744   756      1
   793   744   760      1
   794   757   758      1
   795   757   762      1
   796   757   764      1
   797   757   765      1
   798   758   759      1
   799   758   766      1
   800   758   767      1
   801   759   760      1
   802   759   761      1
   803   759   768      1
   804   760   769      1
   805   760   770      1
   806   761   762      1
   807   761   771      1
   808   761   772      1
   809   762   763      1
   810   762   773      1
   811   763   774      1
   812   763   775      1
   813   763   779      1
   814   776   777      1
   815   776   781      1
   816   776   783      1
   817   776   784      1
   818   777   778      1
   819   777   785      1
   820   777   786      1
   821   778   779      1
   822   778   780      1
   823   778   787      1
   824   779   788      1
   825   779   789      1
   826   780   781      1
   827   780   790      1
   828   780   791      1
   829   781   782      1
   830   781   792      1
   831   782   793      1
   832   782   794      1
   833   782   795      1
   834   795   796      1
   835   795   797      1
   836   795   798      1
   837   796   799      1
   838   796   800      1
   839   796   804      1
   840   801   802      1
   841   801   806      1
   842   801   808      1
   843   801   809      1
   844   802   803      1
   845   802   810      1
   846   802   811      1
   847   803   804      1
   848   803   805      1
   849   803   812      1
   850   804   813      1
   851   804   814      1
   852   805   806      1
   853   805   815      1
   854   805   816      1
   855   806   807      1
   856   806   817      1
   857   807   818      1
   858   807   819      1
   859   807   823      1
   860   820   821      1
   861   820   825      1
   862   820   827      1
   863   820   828      1
   864   821   822      1
   865   821   829      1
   866   821   830      1
   867   822   823      1
   868   822   824      1
   869   822   831      1
   870   823   832      1
   871   823   833      1
   872   824   825      1
   873   824   834      1
   874   824   835      1
   875   825   826      1
   876   825   836      1
   877   826   837      1
   878   826   838      1
   879   826   839      1
   880   839   840      1
   881   839   841      1
   882   839   842      1
   883   840   843      1
   884   840   844      1
   885   840   848      1
   886   845   846      1
   887   845   850      1
   888   845   852      1
   889   845   853      1
   890   846   847      1
   891   846   854      1
   892   846   855      1
   893   847   848      1
   894   847   849      1
   895   847   856      1
   896   848   857      1
   897   848   858      1
   898   849   850      1
   899   849   859      1
   900   849   860      1
   901   850   851      1
   902   850   861      1
   903   851   862      1
   904   851   863      1
   905   851   867      1
   906   864   865      1
   907   864   869      1
   908   864   871      1
   909   864   872      1
   910   865   866      1
   911   865   873      1
   912   865   874      1
   913   866   867      1
   914   866   868      1
   915   866   875      1
   916   867   876      1
   917   867   877      1
   918   868   869      1
   919   868   878      1
   920   868   879      1
   921   869   870      1
   922   869   880      1
   923   870   881      1
   924   870   882      1
   925   870   883      1
   926   883   884      1
   927   883   885      1
   928   883   886      1
   929   884   887      1
   930   884   888      1
   931   884   892      1
   932   889   890      1
   933   889   894      1
   934   889   896      1
   935   889   897      1
   936   890   891      1
   937   890   898      1
   938   890   899      1
   939   891   892      1
   940   891   893      1
   941   891   900      1
   942   892   901      1
   943   892   902      1
   944   893   894      1
   945   893   903      1
   946   893   904      1
   947   894   895      1
   948   894   905      1
   949   895   906      1
   950   895   907      1
   951   895   908      H
