###
### Created by PolyChef-cpp17 on Wed Feb 26 21:14:13 2025
###

@<TRIPOS>MOLECULE
NO_INFO
1261 1319 1 0 0
SMALL
USER_CHARGES


@<TRIPOS>ATOM
      1 C         167.3814   85.2397  221.9776 C.3       0        0    0.0000
      2 C         167.9774   83.9770  221.3712 C.3       0        0    0.0000
      3 C         169.4842   84.1919  221.5469 C.3       0        0    0.0000
      4 C         170.3809   83.2934  220.6897 C.3       0        0    0.0000
      5 C         169.7010   85.7078  221.3722 C.3       0        0    0.0000
      6 C         168.2984   86.3430  221.4395 C.3       0        0    0.0000
      7 C         168.2154   87.6839  222.1753 C.3       0        0    0.0000
      8 H         166.3400   85.3865  221.6748 H         0        0    0.0000
      9 H         167.4119   85.1751  223.0708 H         0        0    0.0000
     10 H         167.6284   83.0742  221.8818 H         0        0    0.0000
     11 H         167.6919   83.9030  220.3160 H         0        0    0.0000
     12 H         169.7194   83.9581  222.5963 H         0        0    0.0000
     13 H         170.0441   83.3415  219.6473 H         0        0    0.0000
     14 H         171.4045   83.6860  220.7084 H         0        0    0.0000
     15 H         170.1729   85.9630  220.4172 H         0        0    0.0000
     16 H         170.3725   86.0743  222.1561 H         0        0    0.0000
     17 H         167.9891   86.5366  220.4013 H         0        0    0.0000
     18 H         167.1698   88.0127  222.2034 H         0        0    0.0000
     19 H         168.5289   87.5415  223.2163 H         0        0    0.0000
     20 C         168.5901   90.7467  218.4115 C.3       1        0    0.0000
     21 C         167.9178   90.0362  219.5888 C.3       1        0    0.0000
     22 C         168.8718   88.9101  220.0261 C.3       1        0    0.0000
     23 C         169.0794   88.8159  221.5428 C.3       1        0    0.0000
     24 C         170.1754   89.2010  219.2757 C.3       1        0    0.0000
     25 C         169.7265   89.8273  217.9511 C.3       1        0    0.0000
     26 C         169.2730   88.7710  216.9257 C.3       1        0    0.0000
     27 H         167.8740   90.9931  217.6217 H         1        0    0.0000
     28 H         169.0154   91.6940  218.7669 H         1        0    0.0000
     29 H         167.7102   90.7535  220.3905 H         1        0    0.0000
     30 H         166.9566   89.6100  219.2787 H         1        0    0.0000
     31 H         168.4709   87.9555  219.6564 H         1        0    0.0000
     32 H         170.1351   88.6064  221.7524 H         1        0    0.0000
     33 H         168.8444   89.7735  222.0216 H         1        0    0.0000
     34 H         170.7786   88.2980  219.1363 H         1        0    0.0000
     35 H         170.7845   89.9236  219.8342 H         1        0    0.0000
     36 H         170.5477   90.4191  217.5270 H         1        0    0.0000
     37 H         168.9215   87.8608  217.4242 H         1        0    0.0000
     38 H         170.1255   88.4822  216.2994 H         1        0    0.0000
     39 C         168.1504   89.3143  215.9948 C.3       2        0    0.0000
     40 C         168.6598   89.8437  214.6465 C.3       2        0    0.0000
     41 H         167.4701   88.4762  215.7964 H         2        0    0.0000
     42 H         167.5652   90.0740  216.5262 H         2        0    0.0000
     43 H         169.6701   89.4770  214.4300 H         2        0    0.0000
     44 H         168.0070   89.4493  213.8573 H         2        0    0.0000
     45 C         165.8196   92.1405  216.8356 C.3       3        0    0.0000
     46 C         166.4270   91.1449  215.8443 C.3       3        0    0.0000
     47 C         167.2349   91.9725  214.8286 C.3       3        0    0.0000
     48 C         168.6270   91.4064  214.5222 C.3       3        0    0.0000
     49 C         167.2974   93.3749  215.4422 C.3       3        0    0.0000
     50 C         165.9722   93.5252  216.1969 C.3       3        0    0.0000
     51 C         164.8032   93.8936  215.2637 C.3       3        0    0.0000
     52 H         164.7872   91.8831  217.0905 H         3        0    0.0000
     53 H         166.3984   92.1086  217.7676 H         3        0    0.0000
     54 H         167.0400   90.4107  216.3786 H         3        0    0.0000
     55 H         165.6353   90.5906  215.3269 H         3        0    0.0000
     56 H         166.6564   92.0336  213.8957 H         3        0    0.0000
     57 H         168.9133   91.6802  213.4997 H         3        0    0.0000
     58 H         169.3753   91.8476  215.1905 H         3        0    0.0000
     59 H         167.4440   94.1490  214.6819 H         3        0    0.0000
     60 H         168.1322   93.4446  216.1515 H         3        0    0.0000
     61 H         166.0760   94.2939  216.9731 H         3        0    0.0000
     62 H         163.8644   93.9824  215.8215 H         3        0    0.0000
     63 H         164.6610   93.0951  214.5258 H         3        0    0.0000
     64 C         165.0731   95.2200  214.4957 C.3       4        0    0.0000
     65 C         164.3399   95.3223  213.1506 C.3       4        0    0.0000
     66 H         164.7198   96.0360  215.1390 H         4        0    0.0000
     67 H         166.1532   95.3627  214.3732 H         4        0    0.0000
     68 H         164.3075   94.3531  212.6392 H         4        0    0.0000
     69 H         163.2989   95.6063  213.3510 H         4        0    0.0000
     70 C         164.6943   94.6005  209.4557 C.3       5        0    0.0000
     71 C         164.9549   96.0944  209.6671 C.3       5        0    0.0000
     72 C         164.1181   96.5166  210.8797 C.3       5        0    0.0000
     73 C         164.9279   96.4094  212.1856 C.3       5        0    0.0000
     74 C         162.9222   95.5597  210.7935 C.3       5        0    0.0000
     75 C         163.5385   94.2165  210.3944 C.3       5        0    0.0000
     76 C         162.5090   93.2632  209.7770 C.3       5        0    0.0000
     77 H         164.4584   94.4116  208.4023 H         5        0    0.0000
     78 H         165.5887   94.0152  209.6979 H         5        0    0.0000
     79 H         164.6103   96.6422  208.7809 H         5        0    0.0000
     80 H         166.0219   96.3109  209.7824 H         5        0    0.0000
     81 H         163.7792   97.5531  210.7550 H         5        0    0.0000
     82 H         164.9066   97.3762  212.7031 H         5        0    0.0000
     83 H         165.9809   96.1869  211.9830 H         5        0    0.0000
     84 H         162.2331   95.9088  210.0134 H         5        0    0.0000
     85 H         162.3524   95.4861  211.7246 H         5        0    0.0000
     86 H         163.9637   93.7492  211.2937 H         5        0    0.0000
     87 H         161.9964   92.6951  210.5620 H         5        0    0.0000
     88 H         163.0241   92.5334  209.1411 H         5        0    0.0000
     89 C         163.0478   96.9787  207.1915 C.3       6        0    0.0000
     90 C         163.1609   95.6719  207.9809 C.3       6        0    0.0000
     91 C         161.8266   95.4969  208.7177 C.3       6        0    0.0000
     92 C         161.4599   94.0235  208.9158 C.3       6        0    0.0000
     93 C         160.8429   96.2885  207.8494 C.3       6        0    0.0000
     94 C         161.6497   97.5389  207.4842 C.3       6        0    0.0000
     95 C         161.0860   98.3409  206.3079 C.3       6        0    0.0000
     96 H         163.8259   97.6918  207.4843 H         6        0    0.0000
     97 H         163.1817   96.7724  206.1228 H         6        0    0.0000
     98 H         163.9982   95.7018  208.6865 H         6        0    0.0000
     99 H         163.3489   94.8424  207.2887 H         6        0    0.0000
    100 H         161.9079   95.9923  209.6962 H         6        0    0.0000
    101 H         161.3905   93.5331  207.9375 H         6        0    0.0000
    102 H         160.4722   93.9370  209.3835 H         6        0    0.0000
    103 H         159.9262   96.5376  208.3933 H         6        0    0.0000
    104 H         160.5680   95.7219  206.9509 H         6        0    0.0000
    105 H         161.7181   98.1840  208.3724 H         6        0    0.0000
    106 H         161.8416   98.4426  205.5202 H         6        0    0.0000
    107 H         160.8425   99.3555  206.6452 H         6        0    0.0000
    108 C         159.8033   97.6966  205.7141 C.3       7        0    0.0000
    109 C         158.5071   98.4311  206.0851 C.3       7        0    0.0000
    110 H         159.9106   97.7258  204.6222 H         7        0    0.0000
    111 H         159.7569   96.6382  205.9962 H         7        0    0.0000
    112 H         158.6583   99.0995  206.9408 H         7        0    0.0000
    113 H         158.2212   99.0666  205.2372 H         7        0    0.0000
    114 C         157.2935   97.4789  206.3664 C.3       8        0    0.0000
    115 C         156.2016   97.5246  205.2879 C.3       8        0    0.0000
    116 H         156.8486   97.8045  207.3154 H         8        0    0.0000
    117 H         157.6553   96.4561  206.5246 H         8        0    0.0000
    118 H         155.5110   98.3405  205.5370 H         8        0    0.0000
    119 H         156.6228   97.7601  204.3035 H         8        0    0.0000
    120 C         155.3421   96.2164  205.1956 C.3       9        0    0.0000
    121 C         153.9458   96.3418  205.8217 C.3       9        0    0.0000
    122 H         155.2177   95.9937  204.1281 H         9        0    0.0000
    123 H         155.8992   95.3771  205.6280 H         9        0    0.0000
    124 H         153.8965   97.1846  206.5212 H         9        0    0.0000
    125 H         153.2305   96.5589  205.0181 H         9        0    0.0000
    126 C         153.4463   95.0360  206.5317 C.3      10        0    0.0000
    127 C         151.9282   94.8221  206.4480 C.3      10        0    0.0000
    128 H         153.7194   95.1269  207.5908 H        10        0    0.0000
    129 H         153.9933   94.1703  206.1402 H        10        0    0.0000
    130 H         151.4421   95.5849  207.0697 H        10        0    0.0000
    131 H         151.5603   94.9698  205.4258 H        10        0    0.0000
    132 C         147.7768   93.2828  206.0225 C.3      11        0    0.0000
    133 C         149.2348   92.9577  205.7292 C.3      11        0    0.0000
    134 C         149.9288   93.2703  207.0590 C.3      11        0    0.0000
    135 C         151.4505   93.4286  206.9852 C.3      11        0    0.0000
    136 C         149.1631   94.4736  207.6432 C.3      11        0    0.0000
    137 C         147.8709   94.5928  206.8117 C.3      11        0    0.0000
    138 C         146.6137   94.9790  207.5968 C.3      11        0    0.0000
    139 H         147.1909   93.3966  205.1052 H        11        0    0.0000
    140 H         147.3297   92.4764  206.6141 H        11        0    0.0000
    141 H         149.3687   91.9132  205.4310 H        11        0    0.0000
    142 H         149.5991   93.5934  204.9147 H        11        0    0.0000
    143 H         149.7354   92.4180  207.7278 H        11        0    0.0000
    144 H         151.8757   93.2714  207.9836 H        11        0    0.0000
    145 H         151.8617   92.6428  206.3405 H        11        0    0.0000
    146 H         149.7279   95.4098  207.5781 H        11        0    0.0000
    147 H         148.9701   94.3028  208.7078 H        11        0    0.0000
    148 H         148.0401   95.3955  206.0782 H        11        0    0.0000
    149 H         146.8469   94.9797  208.6682 H        11        0    0.0000
    150 H         146.3293   96.0052  207.3357 H        11        0    0.0000
    151 C         142.5210   96.4370  207.8533 C.3      12        0    0.0000
    152 C         144.0135   96.1047  207.9285 C.3      12        0    0.0000
    153 C         144.1111   94.5751  207.9989 C.3      12        0    0.0000
    154 C         145.3923   94.0431  207.3509 C.3      12        0    0.0000
    155 C         142.8150   94.1120  207.3253 C.3      12        0    0.0000
    156 C         141.7789   95.0944  207.8815 C.3      12        0    0.0000
    157 C         140.4614   95.1411  207.1026 C.3      12        0    0.0000
    158 H         142.2105   97.0750  208.6877 H        12        0    0.0000
    159 H         142.3161   96.9893  206.9284 H        12        0    0.0000
    160 H         144.4833   96.5689  208.8023 H        12        0    0.0000
    161 H         144.5204   96.4986  207.0395 H        12        0    0.0000
    162 H         144.0816   94.2783  209.0575 H        12        0    0.0000
    163 H         145.2383   93.9478  206.2694 H        12        0    0.0000
    164 H         145.6204   93.0391  207.7274 H        12        0    0.0000
    165 H         142.5714   93.0749  207.5766 H        12        0    0.0000
    166 H         142.8884   94.1947  206.2336 H        12        0    0.0000
    167 H         141.5785   94.8357  208.9315 H        12        0    0.0000
    168 H         140.1854   96.1793  206.8841 H        12        0    0.0000
    169 H         139.6590   94.7245  207.7232 H        12        0    0.0000
    170 C         140.5298   94.3344  205.7769 C.3      13        0    0.0000
    171 C         139.3280   94.5580  204.8479 C.3      13        0    0.0000
    172 H         141.4337   94.6665  205.2502 H        13        0    0.0000
    173 H         140.6697   93.2699  205.9989 H        13        0    0.0000
    174 H         139.1169   93.6656  204.2469 H        13        0    0.0000
    175 H         138.4426   94.7322  205.4725 H        13        0    0.0000
    176 C         136.5005   94.3473  202.3223 C.3      14        0    0.0000
    177 C         137.0234   95.3509  203.3489 C.3      14        0    0.0000
    178 C         138.3836   95.8464  202.8281 C.3      14        0    0.0000
    179 C         139.4720   95.8055  203.9089 C.3      14        0    0.0000
    180 C         138.6804   94.9625  201.6069 C.3      14        0    0.0000
    181 C         137.3023   94.5953  201.0420 C.3      14        0    0.0000
    182 C         136.6638   95.6940  200.1728 C.3      14        0    0.0000
    183 H         136.7032   93.3312  202.6843 H        14        0    0.0000
    184 H         135.4184   94.4299  202.1802 H        14        0    0.0000
    185 H         137.0894   94.8857  204.3385 H        14        0    0.0000
    186 H         136.3326   96.1978  203.4367 H        14        0    0.0000
    187 H         138.2564   96.8837  202.4873 H        14        0    0.0000
    188 H         139.4486   96.7231  204.5081 H        14        0    0.0000
    189 H         140.4573   95.7659  203.4290 H        14        0    0.0000
    190 H         139.3218   95.4695  200.8795 H        14        0    0.0000
    191 H         139.1971   94.0449  201.9174 H        14        0    0.0000
    192 H         137.3671   93.6666  200.4608 H        14        0    0.0000
    193 H         137.4251   96.3565  199.7470 H        14        0    0.0000
    194 H         136.0186   96.3210  200.8001 H        14        0    0.0000
    195 C         135.7928   95.1014  199.0291 C.3      15        0    0.0000
    196 C         135.8306   95.9176  197.7292 C.3      15        0    0.0000
    197 H         136.1898   94.1009  198.8145 H        15        0    0.0000
    198 H         134.7645   94.9614  199.3824 H        15        0    0.0000
    199 H         135.3089   96.8750  197.8440 H        15        0    0.0000
    200 H         136.8787   96.1561  197.5072 H        15        0    0.0000
    201 C         133.9086   97.3882  193.9041 C.3      16        0    0.0000
    202 C         134.6884   97.2943  195.2147 C.3      16        0    0.0000
    203 C         135.4433   95.9541  195.1836 C.3      16        0    0.0000
    204 C         135.2660   95.1545  196.4811 C.3      16        0    0.0000
    205 C         134.9173   95.2379  193.9301 C.3      16        0    0.0000
    206 C         134.5448   96.3655  192.9592 C.3      16        0    0.0000
    207 C         135.7417   96.9614  192.1956 C.3      16        0    0.0000
    208 H         132.8646   97.1064  194.0914 H        16        0    0.0000
    209 H         133.9014   98.4060  193.5016 H        16        0    0.0000
    210 H         134.0095   97.3816  196.0701 H        16        0    0.0000
    211 H         135.4068   98.1192  195.2882 H        16        0    0.0000
    212 H         136.5111   96.1720  195.0405 H        16        0    0.0000
    213 H         135.7530   94.1762  196.3953 H        16        0    0.0000
    214 H         134.1987   94.9634  196.6456 H        16        0    0.0000
    215 H         135.6525   94.5405  193.5170 H        16        0    0.0000
    216 H         134.0157   94.6600  194.1718 H        16        0    0.0000
    217 H         133.7961   96.0123  192.2387 H        16        0    0.0000
    218 H         136.5677   96.2452  192.1302 H        16        0    0.0000
    219 H         136.1235   97.8306  192.7449 H        16        0    0.0000
    220 C         132.9511   95.0357  189.1094 C.3      17        0    0.0000
    221 C         133.6605   95.5681  190.3572 C.3      17        0    0.0000
    222 C         134.9347   96.2658  189.8635 C.3      17        0    0.0000
    223 C         135.3474   97.4313  190.7668 C.3      17        0    0.0000
    224 C         134.5788   96.6657  188.4277 C.3      17        0    0.0000
    225 C         133.8263   95.4338  187.9136 C.3      17        0    0.0000
    226 C         133.0039   95.6723  186.6443 C.3      17        0    0.0000
    227 H         132.8207   93.9492  189.1561 H        17        0    0.0000
    228 H         131.9511   95.4803  189.0403 H        17        0    0.0000
    229 H         133.9009   94.7599  191.0563 H        17        0    0.0000
    230 H         132.9987   96.2665  190.8832 H        17        0    0.0000
    231 H         135.7425   95.5202  189.8299 H        17        0    0.0000
    232 H         134.5129   98.1378  190.8499 H        17        0    0.0000
    233 H         136.1838   97.9812  190.3197 H        17        0    0.0000
    234 H         135.4704   96.8793  187.8297 H        17        0    0.0000
    235 H         133.9341   97.5534  188.4155 H        17        0    0.0000
    236 H         134.5529   94.6273  187.7372 H        17        0    0.0000
    237 H         131.9399   95.7633  186.8920 H        17        0    0.0000
    238 H         133.1010   94.8040  185.9816 H        17        0    0.0000
    239 C         131.6467   97.4264  182.6724 C.3      18        0    0.0000
    240 C         131.8719   96.5195  183.8847 C.3      18        0    0.0000
    241 C         133.3174   96.7630  184.3541 C.3      18        0    0.0000
    242 C         133.4648   96.9380  185.8706 C.3      18        0    0.0000
    243 C         133.7673   98.0043  183.5771 C.3      18        0    0.0000
    244 C         133.0351   97.9055  182.2345 C.3      18        0    0.0000
    245 C         133.7288   96.9381  181.2568 C.3      18        0    0.0000
    246 H         131.0854   96.9185  181.8824 H        18        0    0.0000
    247 H         131.0495   98.2925  182.9853 H        18        0    0.0000
    248 H         131.1298   96.7393  184.6602 H        18        0    0.0000
    249 H         131.7443   95.4677  183.6032 H        18        0    0.0000
    250 H         133.9340   95.9136  184.0269 H        18        0    0.0000
    251 H         134.5166   97.1305  186.1134 H        18        0    0.0000
    252 H         132.8951   97.8098  186.2126 H        18        0    0.0000
    253 H         134.8557   98.0463  183.4657 H        18        0    0.0000
    254 H         133.4521   98.9170  184.0994 H        18        0    0.0000
    255 H         132.9684   98.9010  181.7776 H        18        0    0.0000
    256 H         133.3497   95.9170  181.3746 H        18        0    0.0000
    257 H         134.8026   96.9066  181.4765 H        18        0    0.0000
    258 C         136.4701   99.3915  178.6700 C.3      19        0    0.0000
    259 C         135.7498   98.7327  179.8490 C.3      19        0    0.0000
    260 C         134.2511   98.7215  179.4985 C.3      19        0    0.0000
    261 C         133.5504   97.3860  179.7771 C.3      19        0    0.0000
    262 C         134.2025   99.1080  178.0168 C.3      19        0    0.0000
    263 C         135.3818  100.0684  177.8297 C.3      19        0    0.0000
    264 C         135.0553  101.4984  178.3004 C.3      19        0    0.0000
    265 H         137.2584  100.0730  179.0035 H        19        0    0.0000
    266 H         136.9536   98.6098  178.0701 H        19        0    0.0000
    267 H         136.1540   97.7292  180.0219 H        19        0    0.0000
    268 H         135.9131   99.3101  180.7665 H        19        0    0.0000
    269 H         133.7561   99.5163  180.0749 H        19        0    0.0000
    270 H         132.4783   97.4886  179.5714 H        19        0    0.0000
    271 H         133.9296   96.6073  179.1055 H        19        0    0.0000
    272 H         133.2419   99.5552  177.7409 H        19        0    0.0000
    273 H         134.3488   98.2217  177.3859 H        19        0    0.0000
    274 H         135.6747  100.0899  176.7723 H        19        0    0.0000
    275 H         135.9588  102.1167  178.3440 H        19        0    0.0000
    276 H         134.6447  101.4622  179.3165 H        19        0    0.0000
    277 C         134.0060  102.1846  177.3784 C.3      20        0    0.0000
    278 C         134.4448  103.5567  176.8472 C.3      20        0    0.0000
    279 H         133.8561  101.5188  176.5188 H        20        0    0.0000
    280 H         133.0427  102.2474  177.8979 H        20        0    0.0000
    281 H         133.6000  104.2537  176.7969 H        20        0    0.0000
    282 H         135.1621  103.9840  177.5595 H        20        0    0.0000
    283 C         133.2705  100.6417  174.1506 C.3      21        0    0.0000
    284 C         133.2106  101.9387  174.9561 C.3      21        0    0.0000
    285 C         134.2843  102.8718  174.3700 C.3      21        0    0.0000
    286 C         135.1668  103.5004  175.4564 C.3      21        0    0.0000
    287 C         135.0535  102.0004  173.3652 C.3      21        0    0.0000
    288 C         134.0260  100.9783  172.8624 C.3      21        0    0.0000
    289 C         133.0823  101.5169  171.7717 C.3      21        0    0.0000
    290 H         133.8410   99.8966  174.7197 H        21        0    0.0000
    291 H         132.2757  100.2208  173.9736 H        21        0    0.0000
    292 H         133.3595  101.7336  176.0219 H        21        0    0.0000
    293 H         132.2231  102.4037  174.8526 H        21        0    0.0000
    294 H         133.7707  103.6721  173.8187 H        21        0    0.0000
    295 H         135.4755  104.5095  175.1598 H        21        0    0.0000
    296 H         136.0834  102.9082  175.5658 H        21        0    0.0000
    297 H         135.4966  102.5955  172.5607 H        21        0    0.0000
    298 H         135.8711  101.4690  173.8695 H        21        0    0.0000
    299 H         134.5364  100.0816  172.4883 H        21        0    0.0000
    300 H         132.6533  102.4829  172.0589 H        21        0    0.0000
    301 H         132.2406  100.8246  171.6487 H        21        0    0.0000
    302 C         136.4229  104.1791  170.8424 C.3      22        0    0.0000
    303 C         135.4952  103.1821  171.5351 C.3      22        0    0.0000
    304 C         135.2783  102.0222  170.5479 C.3      22        0    0.0000
    305 C         133.7964  101.6539  170.3972 C.3      22        0    0.0000
    306 C         135.9432  102.4891  169.2438 C.3      22        0    0.0000
    307 C         137.0817  103.4146  169.6913 C.3      22        0    0.0000
    308 C         138.3519  102.6755  170.1503 C.3      22        0    0.0000
    309 H         135.8197  104.9995  170.4328 H        22        0    0.0000
    310 H         137.1427  104.6230  171.5374 H        22        0    0.0000
    311 H         134.5605  103.6714  171.8302 H        22        0    0.0000
    312 H         135.9631  102.8026  172.4512 H        22        0    0.0000
    313 H         135.8273  101.1490  170.9280 H        22        0    0.0000
    314 H         133.6915  100.7205  169.8321 H        22        0    0.0000
    315 H         133.2868  102.4335  169.8182 H        22        0    0.0000
    316 H         136.2876  101.6477  168.6347 H        22        0    0.0000
    317 H         135.2307  103.0637  168.6376 H        22        0    0.0000
    318 H         137.3410  104.1124  168.8848 H        22        0    0.0000
    319 H         138.1059  101.8275  170.7984 H        22        0    0.0000
    320 H         138.9700  103.3569  170.7474 H        22        0    0.0000
    321 C         136.4191  103.3250  166.7816 C.3      23        0    0.0000
    322 C         136.8755  102.3302  167.8517 C.3      23        0    0.0000
    323 C         138.3887  102.1322  167.6517 C.3      23        0    0.0000
    324 C         139.2057  102.1804  168.9488 C.3      23        0    0.0000
    325 C         138.7915  103.2348  166.6673 C.3      23        0    0.0000
    326 C         137.5644  103.4154  165.7673 C.3      23        0    0.0000
    327 C         137.4821  102.3435  164.6640 C.3      23        0    0.0000
    328 H         135.4601  103.0371  166.3404 H        23        0    0.0000
    329 H         136.2755  104.3069  167.2505 H        23        0    0.0000
    330 H         136.6239  102.7099  168.8481 H        23        0    0.0000
    331 H         136.3556  101.3729  167.7292 H        23        0    0.0000
    332 H         138.5477  101.1615  167.1606 H        23        0    0.0000
    333 H         139.5811  101.1761  169.1791 H        23        0    0.0000
    334 H         140.0824  102.8266  168.8253 H        23        0    0.0000
    335 H         139.6952  102.9742  166.1069 H        23        0    0.0000
    336 H         138.9926  104.1711  167.2038 H        23        0    0.0000
    337 H         137.5887  104.4116  165.3075 H        23        0    0.0000
    338 H         137.2213  102.7893  163.6978 H        23        0    0.0000
    339 H         136.6878  101.6286  164.9098 H        23        0    0.0000
    340 C         138.2722   98.4033  162.4713 C.3      24        0    0.0000
    341 C         137.7543   99.4551  163.4423 C.3      24        0    0.0000
    342 C         138.8318  100.5424  163.3749 C.3      24        0    0.0000
    343 C         138.8166  101.5552  164.5239 C.3      24        0    0.0000
    344 C         140.1595   99.7861  163.1734 C.3      24        0    0.0000
    345 C         139.7679   98.3433  162.7984 C.3      24        0    0.0000
    346 C         140.6468   97.6754  161.7364 C.3      24        0    0.0000
    347 H         137.7806   97.4362  162.6158 H        24        0    0.0000
    348 H         138.0882   98.7280  161.4413 H        24        0    0.0000
    349 H         136.7700   99.8329  163.1490 H        24        0    0.0000
    350 H         137.6677   99.0223  164.4451 H        24        0    0.0000
    351 H         138.6507  101.1141  162.4521 H        24        0    0.0000
    352 H         139.0166  101.0310  165.4659 H        24        0    0.0000
    353 H         139.6350  102.2709  164.3817 H        24        0    0.0000
    354 H         140.7833   99.7737  164.0737 H        24        0    0.0000
    355 H         140.7494  100.2829  162.3957 H        24        0    0.0000
    356 H         139.8705   97.7402  163.7131 H        24        0    0.0000
    357 H         140.2237   96.6953  161.4862 H        24        0    0.0000
    358 H         140.6179   98.2746  160.8186 H        24        0    0.0000
    359 C         143.4453   94.2963  160.6305 C.3      25        0    0.0000
    360 C         143.0636   95.1445  161.8340 C.3      25        0    0.0000
    361 C         142.8954   96.5402  161.2301 C.3      25        0    0.0000
    362 C         142.1334   97.4847  162.1629 C.3      25        0    0.0000
    363 C         142.2055   96.2740  159.8796 C.3      25        0    0.0000
    364 C         142.5135   94.8050  159.5233 C.3      25        0    0.0000
    365 C         143.0062   94.5646  158.0907 C.3      25        0    0.0000
    366 H         143.3062   93.2279  160.8231 H        25        0    0.0000
    367 H         144.5013   94.4583  160.3887 H        25        0    0.0000
    368 H         142.1228   94.7853  162.2687 H        25        0    0.0000
    369 H         143.8322   95.1203  162.6126 H        25        0    0.0000
    370 H         143.8955   96.9513  161.0293 H        25        0    0.0000
    371 H         142.1684   97.1091  163.1924 H        25        0    0.0000
    372 H         142.6264   98.4642  162.1685 H        25        0    0.0000
    373 H         141.1187   96.4020  159.9571 H        25        0    0.0000
    374 H         142.5546   96.9823  159.1209 H        25        0    0.0000
    375 H         141.5667   94.2533  159.6217 H        25        0    0.0000
    376 H         143.1184   93.4863  157.9267 H        25        0    0.0000
    377 H         144.0043   95.0047  157.9791 H        25        0    0.0000
    378 C         141.0619   92.3526  154.7666 C.3      26        0    0.0000
    379 C         142.0222   92.8270  155.8600 C.3      26        0    0.0000
    380 C         142.1762   94.3480  155.6809 C.3      26        0    0.0000
    381 C         142.0788   95.1477  156.9860 C.3      26        0    0.0000
    382 C         141.0795   94.7278  154.6807 C.3      26        0    0.0000
    383 C         140.9539   93.5064  153.7637 C.3      26        0    0.0000
    384 C         142.0479   93.4707  152.6797 C.3      26        0    0.0000
    385 H         141.3877   91.4083  154.3200 H        26        0    0.0000
    386 H         140.0766   92.1728  155.2155 H        26        0    0.0000
    387 H         141.6325   92.5519  156.8463 H        26        0    0.0000
    388 H         142.9975   92.3388  155.7494 H        26        0    0.0000
    389 H         143.1502   94.5430  155.2097 H        26        0    0.0000
    390 H         142.3728   96.1871  156.7977 H        26        0    0.0000
    391 H         141.0433   95.1703  157.3447 H        26        0    0.0000
    392 H         141.3217   95.6458  154.1355 H        26        0    0.0000
    393 H         140.1277   94.8932  155.2020 H        26        0    0.0000
    394 H         139.9660   93.5051  153.2859 H        26        0    0.0000
    395 H         143.0441   93.3768  153.1257 H        26        0    0.0000
    396 H         142.0368   94.4138  152.1204 H        26        0    0.0000
    397 C         141.8236   92.3070  151.6710 C.3      27        0    0.0000
    398 C         143.0155   92.0524  150.7372 C.3      27        0    0.0000
    399 H         141.6574   91.3997  152.2659 H        27        0    0.0000
    400 H         140.9024   92.4826  151.1032 H        27        0    0.0000
    401 H         143.4555   92.9934  150.3865 H        27        0    0.0000
    402 H         143.7950   91.5369  151.3128 H        27        0    0.0000
    403 C         146.1422   89.8217  148.7166 C.3      28        0    0.0000
    404 C         145.2512   90.8352  149.4184 C.3      28        0    0.0000
    405 C         143.9026   90.6824  148.7038 C.3      28        0    0.0000
    406 C         142.6789   91.1366  149.5097 C.3      28        0    0.0000
    407 C         143.8598   89.2248  148.2007 C.3      28        0    0.0000
    408 C         145.2238   88.6079  148.5608 C.3      28        0    0.0000
    409 C         145.7624   87.6042  147.5383 C.3      28        0    0.0000
    410 H         146.4587   90.2067  147.7395 H        28        0    0.0000
    411 H         147.0384   89.5904  149.3005 H        28        0    0.0000
    412 H         145.1847   90.5885  150.4836 H        28        0    0.0000
    413 H         145.6454   91.8529  149.3346 H        28        0    0.0000
    414 H         143.9388   91.3220  147.8093 H        28        0    0.0000
    415 H         141.9960   91.6785  148.8445 H        28        0    0.0000
    416 H         142.1358   90.2529  149.8650 H        28        0    0.0000
    417 H         143.6992   89.2265  147.1154 H        28        0    0.0000
    418 H         143.0438   88.6422  148.6409 H        28        0    0.0000
    419 H         145.1308   88.1184  149.5412 H        28        0    0.0000
    420 H         145.7615   86.5936  147.9637 H        28        0    0.0000
    421 H         145.0954   87.5799  146.6684 H        28        0    0.0000
    422 C         149.3515   85.0199  145.9668 C.3      29        0    0.0000
    423 C         148.4187   85.6726  146.9774 C.3      29        0    0.0000
    424 C         147.8588   86.8698  146.2021 C.3      29        0    0.0000
    425 C         147.1980   87.9557  147.0567 C.3      29        0    0.0000
    426 C         149.0145   87.3456  145.3002 C.3      29        0    0.0000
    427 C         150.0665   86.2198  145.3370 C.3      29        0    0.0000
    428 C         150.7793   85.9385  144.0107 C.3      29        0    0.0000
    429 H         150.0520   84.3280  146.4444 H        29        0    0.0000
    430 H         148.7654   84.4572  145.2319 H        29        0    0.0000
    431 H         147.6292   84.9896  147.3056 H        29        0    0.0000
    432 H         148.9885   85.9832  147.8600 H        29        0    0.0000
    433 H         147.0767   86.4793  145.5336 H        29        0    0.0000
    434 H         147.8257   88.1520  147.9341 H        29        0    0.0000
    435 H         147.1583   88.8889  146.4826 H        29        0    0.0000
    436 H         149.4672   88.2810  145.6463 H        29        0    0.0000
    437 H         148.6351   87.5409  144.2915 H        29        0    0.0000
    438 H         150.8440   86.5371  146.0483 H        29        0    0.0000
    439 H         151.3630   86.8211  143.7237 H        29        0    0.0000
    440 H         151.4952   85.1206  144.1550 H        29        0    0.0000
    441 C         151.5807   83.1421  140.5406 C.3      30        0    0.0000
    442 C         151.2759   83.6924  141.9254 C.3      30        0    0.0000
    443 C         150.5747   85.0178  141.6208 C.3      30        0    0.0000
    444 C         149.8244   85.5666  142.8368 C.3      30        0    0.0000
    445 C         149.6840   84.6904  140.4083 C.3      30        0    0.0000
    446 C         150.3031   83.4421  139.7464 C.3      30        0    0.0000
    447 C         150.4813   83.5239  138.2251 C.3      30        0    0.0000
    448 H         151.8037   82.0708  140.5667 H        30        0    0.0000
    449 H         152.4548   83.6562  140.1265 H        30        0    0.0000
    450 H         150.6117   83.0087  142.4680 H        30        0    0.0000
    451 H         152.1841   83.8317  142.5198 H        30        0    0.0000
    452 H         151.3358   85.7444  141.3010 H        30        0    0.0000
    453 H         149.2394   86.4496  142.5535 H        30        0    0.0000
    454 H         149.1084   84.8150  143.1902 H        30        0    0.0000
    455 H         148.6585   84.4571  140.7208 H        30        0    0.0000
    456 H         149.6214   85.5491  139.7316 H        30        0    0.0000
    457 H         149.6067   82.6108  139.9322 H        30        0    0.0000
    458 H         150.1824   82.5686  137.7775 H        30        0    0.0000
    459 H         151.5458   83.6575  137.9983 H        30        0    0.0000
    460 C         149.4813   84.0886  133.8068 C.3      31        0    0.0000
    461 C         149.7439   83.5551  135.2068 C.3      31        0    0.0000
    462 C         149.9465   84.8255  136.0423 C.3      31        0    0.0000
    463 C         149.6798   84.6708  137.5450 C.3      31        0    0.0000
    464 C         149.1283   85.9251  135.3346 C.3      31        0    0.0000
    465 C         148.5527   85.2777  134.0618 C.3      31        0    0.0000
    466 C         148.4653   86.2114  132.8520 C.3      31        0    0.0000
    467 H         150.4203   84.4123  133.3414 H        31        0    0.0000
    468 H         149.0207   83.3348  133.1609 H        31        0    0.0000
    469 H         148.8803   82.9720  135.5443 H        31        0    0.0000
    470 H         150.6214   82.9017  135.2370 H        31        0    0.0000
    471 H         151.0049   85.1095  135.9435 H        31        0    0.0000
    472 H         149.9221   85.6144  138.0483 H        31        0    0.0000
    473 H         148.6088   84.4968  137.7026 H        31        0    0.0000
    474 H         149.7935   86.7620  135.0881 H        31        0    0.0000
    475 H         148.3253   86.3317  135.9584 H        31        0    0.0000
    476 H         147.5516   84.8883  134.2975 H        31        0    0.0000
    477 H         149.4623   86.5841  132.5890 H        31        0    0.0000
    478 H         148.1013   85.6476  131.9848 H        31        0    0.0000
    479 C         147.5159   87.4177  133.0971 C.3      32        0    0.0000
    480 C         147.2068   88.2349  131.8345 C.3      32        0    0.0000
    481 H         146.5716   87.0059  133.4757 H        32        0    0.0000
    482 H         147.9227   88.0522  133.8933 H        32        0    0.0000
    483 H         148.1108   88.7102  131.4358 H        32        0    0.0000
    484 H         146.8484   87.5439  131.0609 H        32        0    0.0000
    485 C         144.3829   89.6772  128.8013 C.3      33        0    0.0000
    486 C         144.3531   90.0098  130.2923 C.3      33        0    0.0000
    487 C         145.8182   90.1131  130.7504 C.3      33        0    0.0000
    488 C         146.0862   89.3137  132.0323 C.3      33        0    0.0000
    489 C         146.6405   89.6477  129.5389 C.3      33        0    0.0000
    490 C         145.7928   90.0268  128.3180 C.3      33        0    0.0000
    491 C         145.9046   91.5064  127.9074 C.3      33        0    0.0000
    492 H         144.2144   88.6001  128.6746 H        33        0    0.0000
    493 H         143.5931   90.1951  128.2482 H        33        0    0.0000
    494 H         143.7870   89.2498  130.8419 H        33        0    0.0000
    495 H         143.8480   90.9689  130.4565 H        33        0    0.0000
    496 H         146.0388   91.1736  130.9372 H        33        0    0.0000
    497 H         145.1656   88.8301  132.3792 H        33        0    0.0000
    498 H         146.4022   89.9997  132.8274 H        33        0    0.0000
    499 H         147.6391   90.0952  129.5243 H        33        0    0.0000
    500 H         146.7692   88.5577  129.5620 H        33        0    0.0000
    501 H         146.0578   89.3931  127.4620 H        33        0    0.0000
    502 H         146.8494   91.9432  128.2483 H        33        0    0.0000
    503 H         145.1030   92.0770  128.3920 H        33        0    0.0000
    504 C         147.1750   95.0732  125.4404 C.3      34        0    0.0000
    505 C         147.1822   93.8060  126.2817 C.3      34        0    0.0000
    506 C         145.8300   93.1694  125.9539 C.3      34        0    0.0000
    507 C         145.7689   91.6977  126.3702 C.3      34        0    0.0000
    508 C         145.6645   93.4188  124.4436 C.3      34        0    0.0000
    509 C         146.5804   94.6126  124.1036 C.3      34        0    0.0000
    510 C         145.9345   95.7178  123.2584 C.3      34        0    0.0000
    511 H         148.1803   95.4887  125.3192 H        34        0    0.0000
    512 H         146.5552   95.8330  125.9284 H        34        0    0.0000
    513 H         148.0105   93.1538  125.9789 H        34        0    0.0000
    514 H         147.2895   94.0233  127.3488 H        34        0    0.0000
    515 H         145.0471   93.7327  126.4824 H        34        0    0.0000
    516 H         144.8279   91.2477  126.0320 H        34        0    0.0000
    517 H         146.5771   91.1470  125.8743 H        34        0    0.0000
    518 H         145.9840   92.5464  123.8600 H        34        0    0.0000
    519 H         144.6135   93.5991  124.1945 H        34        0    0.0000
    520 H         147.4107   94.2101  123.5044 H        34        0    0.0000
    521 H         146.7182   96.2530  122.7092 H        34        0    0.0000
    522 H         145.4649   96.4487  123.9274 H        34        0    0.0000
    523 C         141.9049   93.8756  124.1616 C.3      35        0    0.0000
    524 C         143.2441   94.6160  124.1160 C.3      35        0    0.0000
    525 C         143.9593   94.1346  122.8468 C.3      35        0    0.0000
    526 C         144.8669   95.2117  122.2462 C.3      35        0    0.0000
    527 C         142.8038   93.6956  121.9412 C.3      35        0    0.0000
    528 C         141.8667   92.9776  122.9181 C.3      35        0    0.0000
    529 C         140.4426   92.7655  122.3969 C.3      35        0    0.0000
    530 H         141.8063   93.2827  125.0773 H        35        0    0.0000
    531 H         141.0849   94.6037  124.1562 H        35        0    0.0000
    532 H         143.8457   94.4102  125.0079 H        35        0    0.0000
    533 H         143.0627   95.6971  124.0889 H        35        0    0.0000
    534 H         144.5579   93.2491  123.1058 H        35        0    0.0000
    535 H         144.2553   96.0647  121.9288 H        35        0    0.0000
    536 H         145.3672   94.8301  121.3485 H        35        0    0.0000
    537 H         143.1425   93.0336  121.1380 H        35        0    0.0000
    538 H         142.3086   94.5634  121.4876 H        35        0    0.0000
    539 H         142.3120   92.0074  123.1823 H        35        0    0.0000
    540 H         139.7117   93.1274  123.1294 H        35        0    0.0000
    541 H         140.2593   91.6917  122.2714 H        35        0    0.0000
    542 C         142.8967   96.1028  120.5353 C.3      36        0    0.0000
    543 C         142.0428   95.2420  121.4559 C.3      36        0    0.0000
    544 C         141.4175   94.2278  120.4926 C.3      36        0    0.0000
    545 C         140.2011   93.4704  121.0339 C.3      36        0    0.0000
    546 C         141.1877   95.0027  119.1803 C.3      36        0    0.0000
    547 C         141.9850   96.3141  119.3222 C.3      36        0    0.0000
    548 C         142.6855   96.8019  118.0503 C.3      36        0    0.0000
    549 H         143.1799   97.0490  121.0067 H        36        0    0.0000
    550 H         143.8145   95.5654  120.2725 H        36        0    0.0000
    551 H         142.6411   94.7564  122.2329 H        36        0    0.0000
    552 H         141.2865   95.8638  121.9476 H        36        0    0.0000
    553 H         142.1882   93.4711  120.2818 H        36        0    0.0000
    554 H         139.3633   94.1694  121.1424 H        36        0    0.0000
    555 H         139.8908   92.7184  120.2987 H        36        0    0.0000
    556 H         140.1320   95.2337  119.0015 H        36        0    0.0000
    557 H         141.5183   94.3931  118.3325 H        36        0    0.0000
    558 H         141.2612   97.0954  119.5994 H        36        0    0.0000
    559 H         143.1659   97.7663  118.2536 H        36        0    0.0000
    560 H         143.4865   96.0996  117.7905 H        36        0    0.0000
    561 C         143.4838   98.3555  113.8549 C.3      37        0    0.0000
    562 C         143.5857   97.9905  115.3378 C.3      37        0    0.0000
    563 C         142.1693   98.1304  115.9239 C.3      37        0    0.0000
    564 C         141.7419   96.9620  116.8207 C.3      37        0    0.0000
    565 C         141.2628   98.2874  114.6988 C.3      37        0    0.0000
    566 C         142.1230   99.0375  113.6761 C.3      37        0    0.0000
    567 C         142.1660  100.5539  113.9440 C.3      37        0    0.0000
    568 H         144.3303   98.9660  113.5265 H        37        0    0.0000
    569 H         143.5040   97.4322  113.2617 H        37        0    0.0000
    570 H         143.9939   96.9798  115.4479 H        37        0    0.0000
    571 H         144.2706   98.6742  115.8528 H        37        0    0.0000
    572 H         142.1261   99.0643  116.5023 H        37        0    0.0000
    573 H         140.7226   97.1377  117.1849 H        37        0    0.0000
    574 H         141.7179   96.0281  116.2474 H        37        0    0.0000
    575 H         140.3339   98.8139  114.9408 H        37        0    0.0000
    576 H         140.9908   97.3031  114.2962 H        37        0    0.0000
    577 H         141.7353   98.8559  112.6656 H        37        0    0.0000
    578 H         142.9708  100.8098  114.6419 H        37        0    0.0000
    579 H         141.2258  100.8673  114.4131 H        37        0    0.0000
    580 C         143.5589   98.8222  110.0995 C.3      38        0    0.0000
    581 C         143.1046   99.1560  111.5122 C.3      38        0    0.0000
    582 C         143.2271  100.6836  111.5767 C.3      38        0    0.0000
    583 C         142.3460  101.3677  112.6297 C.3      38        0    0.0000
    584 C         143.0335  101.1791  110.1287 C.3      38        0    0.0000
    585 C         142.8965   99.9159  109.2592 C.3      38        0    0.0000
    586 C         143.5178  100.0281  107.8647 C.3      38        0    0.0000
    587 H         144.6522   98.8766  110.0294 H        38        0    0.0000
    588 H         143.2455   97.8191  109.7946 H        38        0    0.0000
    589 H         142.0725   98.8179  111.6543 H        38        0    0.0000
    590 H         143.7250   98.6638  112.2679 H        38        0    0.0000
    591 H         144.2685  100.9111  111.8494 H        38        0    0.0000
    592 H         142.7808  102.3433  112.8779 H        38        0    0.0000
    593 H         141.3582  101.5651  112.1968 H        38        0    0.0000
    594 H         143.9092  101.7707  109.8340 H        38        0    0.0000
    595 H         142.1588  101.8270  110.0097 H        38        0    0.0000
    596 H         141.8269   99.6780  109.1659 H        38        0    0.0000
    597 H         144.6068   99.9160  107.9257 H        38        0    0.0000
    598 H         143.1516   99.2064  107.2378 H        38        0    0.0000
    599 C         139.7646  102.5636  108.3382 C.3      39        0    0.0000
    600 C         140.7481  101.4360  108.0574 C.3      39        0    0.0000
    601 C         142.0724  102.1799  107.8560 C.3      39        0    0.0000
    602 C         143.1800  101.3761  107.1681 C.3      39        0    0.0000
    603 C         141.6920  103.5076  107.1718 C.3      39        0    0.0000
    604 C         140.1617  103.6275  107.3095 C.3      39        0    0.0000
    605 C         139.6319  105.0381  107.5847 C.3      39        0    0.0000
    606 H         138.7262  102.2403  108.2157 H        39        0    0.0000
    607 H         139.8916  102.9176  109.3672 H        39        0    0.0000
    608 H         140.7991  100.7223  108.8854 H        39        0    0.0000
    609 H         140.4401  100.8919  107.1577 H        39        0    0.0000
    610 H         142.4491  102.4372  108.8575 H        39        0    0.0000
    611 H         142.8840  101.1727  106.1321 H        39        0    0.0000
    612 H         144.0898  101.9863  107.1218 H        39        0    0.0000
    613 H         141.9674  103.5345  106.1120 H        39        0    0.0000
    614 H         142.2286  104.3333  107.6513 H        39        0    0.0000
    615 H         139.7323  103.3150  106.3456 H        39        0    0.0000
    616 H         138.5380  105.0031  107.6509 H        39        0    0.0000
    617 H         139.9961  105.3732  108.5631 H        39        0    0.0000
    618 C         139.9062  104.0272  103.4325 C.3      40        0    0.0000
    619 C         140.1361  104.0465  104.9456 C.3      40        0    0.0000
    620 C         140.6902  105.4409  105.2888 C.3      40        0    0.0000
    621 C         140.0349  106.0941  106.5120 C.3      40        0    0.0000
    622 C         140.4841  106.2592  104.0100 C.3      40        0    0.0000
    623 C         140.6487  105.2454  102.8727 C.3      40        0    0.0000
    624 C         142.1276  104.9580  102.5513 C.3      40        0    0.0000
    625 H         140.2157  103.0776  102.9855 H        40        0    0.0000
    626 H         138.8320  104.1396  103.2370 H        40        0    0.0000
    627 H         139.2012  103.8192  105.4697 H        40        0    0.0000
    628 H         140.8627  103.2769  105.2309 H        40        0    0.0000
    629 H         141.7715  105.3488  105.4644 H        40        0    0.0000
    630 H         140.7390  106.8010  106.9670 H        40        0    0.0000
    631 H         139.1537  106.6724  106.2113 H        40        0    0.0000
    632 H         141.1880  107.0948  103.9400 H        40        0    0.0000
    633 H         139.4694  106.6773  103.9834 H        40        0    0.0000
    634 H         140.1449  105.6182  101.9718 H        40        0    0.0000
    635 H         142.2926  103.8904  102.3686 H        40        0    0.0000
    636 H         142.7474  105.2333  103.4129 H        40        0    0.0000
    637 C         139.6077  104.4690   99.5892 C.3      41        0    0.0000
    638 C         140.9862  104.1421  100.1685 C.3      41        0    0.0000
    639 C         141.8275  105.4260  100.0541 C.3      41        0    0.0000
    640 C         142.6201  105.7730  101.3204 C.3      41        0    0.0000
    641 C         140.8149  106.5143   99.6831 C.3      41        0    0.0000
    642 C         139.7665  105.7913   98.8308 C.3      41        0    0.0000
    643 C         140.2243  105.6015   97.3722 C.3      41        0    0.0000
    644 H         139.2199  103.6512   98.9744 H        41        0    0.0000
    645 H         138.9015  104.6117  100.4171 H        41        0    0.0000
    646 H         140.8850  103.7902  101.2011 H        41        0    0.0000
    647 H         141.4590  103.3353   99.5963 H        41        0    0.0000
    648 H         142.5249  105.3076   99.2125 H        41        0    0.0000
    649 H         143.6812  105.5497  101.1572 H        41        0    0.0000
    650 H         142.5504  106.8458  101.5338 H        41        0    0.0000
    651 H         141.2863  107.3512   99.1578 H        41        0    0.0000
    652 H         140.3380  106.9163  100.5864 H        41        0    0.0000
    653 H         138.8255  106.3559   98.8477 H        41        0    0.0000
    654 H         140.7552  104.6516   97.2445 H        41        0    0.0000
    655 H         140.9285  106.3984   97.1053 H        41        0    0.0000
    656 C         136.3158  107.7846   97.6459 C.3      42        0    0.0000
    657 C         137.7681  107.3449   97.8249 C.3      42        0    0.0000
    658 C         138.3044  107.0126   96.4217 C.3      42        0    0.0000
    659 C         139.0277  105.6601   96.3790 C.3      42        0    0.0000
    660 C         137.0750  107.0944   95.5037 C.3      42        0    0.0000
    661 C         136.1589  108.1329   96.1634 C.3      42        0    0.0000
    662 C         136.5515  109.5935   95.8759 C.3      42        0    0.0000
    663 H         135.6571  106.9414   97.8904 H        42        0    0.0000
    664 H         136.0493  108.6078   98.3162 H        42        0    0.0000
    665 H         137.8280  106.4972   98.5162 H        42        0    0.0000
    666 H         138.3593  108.1586   98.2613 H        42        0    0.0000
    667 H         139.0098  107.8050   96.1342 H        42        0    0.0000
    668 H         139.3808  105.4489   95.3630 H        42        0    0.0000
    669 H         138.3211  104.8632   96.6406 H        42        0    0.0000
    670 H         137.3470  107.3528   94.4756 H        42        0    0.0000
    671 H         136.5573  106.1268   95.4733 H        42        0    0.0000
    672 H         135.1186  107.9705   95.8537 H        42        0    0.0000
    673 H         137.3829  109.9143   96.5127 H        42        0    0.0000
    674 H         135.7044  110.2484   96.1135 H        42        0    0.0000
    675 C         136.9258  109.8146   94.3829 C.3      43        0    0.0000
    676 C         137.9090  110.9707   94.1508 C.3      43        0    0.0000
    677 H         137.4010  108.8884   94.0350 H        43        0    0.0000
    678 H         136.0135  109.9412   93.7882 H        43        0    0.0000
    679 H         137.4174  111.9430   94.2726 H        43        0    0.0000
    680 H         138.6886  110.9146   94.9214 H        43        0    0.0000
    681 C         136.5154  112.5828   90.0878 C.3      44        0    0.0000
    682 C         136.6292  111.7880   91.3811 C.3      44        0    0.0000
    683 C         138.1132  111.9253   91.7371 C.3      44        0    0.0000
    684 C         138.6389  110.9177   92.7640 C.3      44        0    0.0000
    685 C         138.8544  111.9450   90.3859 C.3      44        0    0.0000
    686 C         137.7676  112.1574   89.3139 C.3      44        0    0.0000
    687 C         138.1603  113.0684   88.1468 C.3      44        0    0.0000
    688 H         135.5958  112.3478   89.5431 H        44        0    0.0000
    689 H         136.5137  113.6553   90.3115 H        44        0    0.0000
    690 H         135.9794  112.1884   92.1655 H        44        0    0.0000
    691 H         136.3432  110.7459   91.2014 H        44        0    0.0000
    692 H         138.2432  112.9228   92.1833 H        44        0    0.0000
    693 H         138.5428  109.9053   92.3539 H        44        0    0.0000
    694 H         139.7095  111.0930   92.9226 H        44        0    0.0000
    695 H         139.3925  111.0130   90.1819 H        44        0    0.0000
    696 H         139.6069  112.7409   90.3928 H        44        0    0.0000
    697 H         137.5540  111.1687   88.8804 H        44        0    0.0000
    698 H         137.6511  112.7258   87.2382 H        44        0    0.0000
    699 H         137.7982  114.0837   88.3471 H        44        0    0.0000
    700 C         140.5587  116.0920   85.7018 C.3      45        0    0.0000
    701 C         139.5736  115.3278   86.5903 C.3      45        0    0.0000
    702 C         140.0195  113.8599   86.5642 C.3      45        0    0.0000
    703 C         139.6924  113.1290   87.8693 C.3      45        0    0.0000
    704 C         141.5149  113.9559   86.2435 C.3      45        0    0.0000
    705 C         141.5588  115.0540   85.1758 C.3      45        0    0.0000
    706 C         142.9468  115.6536   84.9339 C.3      45        0    0.0000
    707 H         140.0450  116.5960   84.8761 H        45        0    0.0000
    708 H         141.0592  116.8671   86.2944 H        45        0    0.0000
    709 H         138.5449  115.4322   86.2291 H        45        0    0.0000
    710 H         139.6044  115.7385   87.6066 H        45        0    0.0000
    711 H         139.5120  113.3626   85.7248 H        45        0    0.0000
    712 H         140.1781  113.6463   88.7054 H        45        0    0.0000
    713 H         140.0999  112.1115   87.8477 H        45        0    0.0000
    714 H         141.9150  113.0074   85.8714 H        45        0    0.0000
    715 H         142.0892  114.2482   87.1316 H        45        0    0.0000
    716 H         141.1640  114.6441   84.2347 H        45        0    0.0000
    717 H         143.6939  114.8569   84.8391 H        45        0    0.0000
    718 H         143.2367  116.2571   85.8023 H        45        0    0.0000
    719 C         139.8143  118.6213   83.5989 C.3      46        0    0.0000
    720 C         140.7558  117.6854   84.3414 C.3      46        0    0.0000
    721 C         141.6205  117.0868   83.2247 C.3      46        0    0.0000
    722 C         142.9889  116.5550   83.6695 C.3      46        0    0.0000
    723 C         141.6549  118.1505   82.1081 C.3      46        0    0.0000
    724 C         140.7339  119.2920   82.5763 C.3      46        0    0.0000
    725 C         139.9481  119.9804   81.4576 C.3      46        0    0.0000
    726 H         139.0221  118.0477   83.1025 H        46        0    0.0000
    727 H         139.3435  119.3460   84.2701 H        46        0    0.0000
    728 H         141.3496  118.2589   85.0613 H        46        0    0.0000
    729 H         140.2119  116.9139   84.8954 H        46        0    0.0000
    730 H         141.0702  116.2245   82.8196 H        46        0    0.0000
    731 H         143.4333  115.9836   82.8459 H        46        0    0.0000
    732 H         143.6578  117.4026   83.8605 H        46        0    0.0000
    733 H         141.2884  117.7017   81.1764 H        46        0    0.0000
    734 H         142.6629  118.5263   81.9036 H        46        0    0.0000
    735 H         141.3498  120.0357   83.1028 H        46        0    0.0000
    736 H         140.4368  119.8087   80.4912 H        46        0    0.0000
    737 H         138.9491  119.5336   81.3887 H        46        0    0.0000
    738 C         138.1151  124.2020   79.5987 C.3      47        0    0.0000
    739 C         139.3652  123.6067   80.2314 C.3      47        0    0.0000
    740 C         138.8970  122.2150   80.6693 C.3      47        0    0.0000
    741 C         139.7957  121.5099   81.6897 C.3      47        0    0.0000
    742 C         137.4261  122.3964   81.0925 C.3      47        0    0.0000
    743 C         137.0079  123.7856   80.5725 C.3      47        0    0.0000
    744 C         135.5804  123.8838   80.0258 C.3      47        0    0.0000
    745 H         138.1863  125.2894   79.4975 H        47        0    0.0000
    746 H         137.9672  123.7763   78.6001 H        47        0    0.0000
    747 H         140.1977  123.5564   79.5227 H        47        0    0.0000
    748 H         139.6788  124.2224   81.0815 H        47        0    0.0000
    749 H         138.8908  121.5826   79.7687 H        47        0    0.0000
    750 H         140.7906  121.9702   81.6689 H        47        0    0.0000
    751 H         139.3932  121.6749   82.6962 H        47        0    0.0000
    752 H         137.2874  122.3550   82.1783 H        47        0    0.0000
    753 H         136.8218  121.5850   80.6728 H        47        0    0.0000
    754 H         137.0620  124.4733   81.4299 H        47        0    0.0000
    755 H         135.0474  122.9514   80.2469 H        47        0    0.0000
    756 H         135.0484  124.6837   80.5544 H        47        0    0.0000
    757 C         138.5674  126.0655   77.3586 C.3      48        0    0.0000
    758 C         137.8632  125.2125   78.4027 C.3      48        0    0.0000
    759 C         136.3844  125.3098   78.0070 C.3      48        0    0.0000
    760 C         135.4987  124.1558   78.4937 C.3      48        0    0.0000
    761 C         136.3753  125.5543   76.4839 C.3      48        0    0.0000
    762 C         137.8506  125.6818   76.0624 C.3      48        0    0.0000
    763 C         138.1108  126.6887   74.9393 C.3      48        0    0.0000
    764 H         138.4332  127.1304   77.5849 H        48        0    0.0000
    765 H         139.6407  125.8570   77.3154 H        48        0    0.0000
    766 H         138.2384  124.1848   78.3494 H        48        0    0.0000
    767 H         138.0399  125.5810   79.4181 H        48        0    0.0000
    768 H         135.9865  126.2233   78.4736 H        48        0    0.0000
    769 H         134.4563  124.3721   78.2308 H        48        0    0.0000
    770 H         135.7747  123.2410   77.9559 H        48        0    0.0000
    771 H         135.8214  126.4778   76.2741 H        48        0    0.0000
    772 H         135.8809  124.7540   75.9234 H        48        0    0.0000
    773 H         138.2063  124.6880   75.7536 H        48        0    0.0000
    774 H         138.3777  127.6650   75.3608 H        48        0    0.0000
    775 H         138.9713  126.3560   74.3467 H        48        0    0.0000
    776 C         137.1167  125.5894   70.9732 C.3      49        0    0.0000
    777 C         138.1159  126.3782   71.8238 C.3      49        0    0.0000
    778 C         137.3001  127.4065   72.6150 C.3      49        0    0.0000
    779 C         136.8885  126.8561   73.9935 C.3      49        0    0.0000
    780 C         136.1273  127.6849   71.6662 C.3      49        0    0.0000
    781 C         135.7644  126.3108   71.0975 C.3      49        0    0.0000
    782 C         134.9758  126.4119   69.7869 C.3      49        0    0.0000
    783 H         137.4709  125.5397   69.9373 H        49        0    0.0000
    784 H         137.0305  124.5589   71.3364 H        49        0    0.0000
    785 H         138.8109  126.9035   71.1565 H        49        0    0.0000
    786 H         138.7180  125.7223   72.4608 H        49        0    0.0000
    787 H         137.8918  128.3198   72.7586 H        49        0    0.0000
    788 H         136.4173  125.8743   73.8634 H        49        0    0.0000
    789 H         136.1422  127.4996   74.4716 H        49        0    0.0000
    790 H         136.4616  128.3532   70.8618 H        49        0    0.0000
    791 H         135.2728  128.1625   72.1547 H        49        0    0.0000
    792 H         135.1549  125.7779   71.8409 H        49        0    0.0000
    793 H         134.1117  125.7378   69.8089 H        49        0    0.0000
    794 H         135.6109  126.0878   68.9540 H        49        0    0.0000
    795 C         134.4947  127.8656   69.5119 C.3      50        0    0.0000
    796 C         134.0887  128.1230   68.0536 C.3      50        0    0.0000
    797 H         133.6140  128.0329   70.1451 H        50        0    0.0000
    798 H         135.2596  128.5771   69.8445 H        50        0    0.0000
    799 H         134.8424  127.7392   67.3561 H        50        0    0.0000
    800 H         133.1642  127.5661   67.8542 H        50        0    0.0000
    801 C         131.7947  129.9563   64.5276 C.3      51        0    0.0000
    802 C         132.2707  129.1082   65.6971 C.3      51        0    0.0000
    803 C         133.4524  129.9068   66.2616 C.3      51        0    0.0000
    804 C         133.7888  129.6281   67.7320 C.3      51        0    0.0000
    805 C         133.1613  131.3821   65.9174 C.3      51        0    0.0000
    806 C         131.8660  131.3795   65.0850 C.3      51        0    0.0000
    807 C         131.8140  132.4359   63.9785 C.3      51        0    0.0000
    808 H         132.4676  129.8327   63.6703 H        51        0    0.0000
    809 H         130.7827  129.6861   64.2108 H        51        0    0.0000
    810 H         131.4595  129.0004   66.4252 H        51        0    0.0000
    811 H         132.5702  128.1047   65.3788 H        51        0    0.0000
    812 H         134.3414  129.6189   65.6808 H        51        0    0.0000
    813 H         134.6610  130.2284   68.0174 H        51        0    0.0000
    814 H         132.9561  129.9658   68.3603 H        51        0    0.0000
    815 H         134.0025  131.7867   65.3410 H        51        0    0.0000
    816 H         133.0501  132.0160   66.8034 H        51        0    0.0000
    817 H         131.0178  131.5239   65.7699 H        51        0    0.0000
    818 H         130.7833  132.7802   63.8324 H        51        0    0.0000
    819 H         132.3976  133.3117   64.2861 H        51        0    0.0000
    820 C         133.4218  132.1875   59.5272 C.3      52        0    0.0000
    821 C         133.3705  133.1969   60.6773 C.3      52        0    0.0000
    822 C         132.0956  132.8907   61.4708 C.3      52        0    0.0000
    823 C         132.3752  131.9119   62.6268 C.3      52        0    0.0000
    824 C         131.1647  132.3398   60.3831 C.3      52        0    0.0000
    825 C         132.0693  131.4557   59.5210 C.3      52        0    0.0000
    826 C         131.4861  131.2110   58.1246 C.3      52        0    0.0000
    827 H         133.6190  132.7104   58.5845 H        52        0    0.0000
    828 H         134.2383  131.4722   59.6784 H        52        0    0.0000
    829 H         133.3013  134.2083   60.2570 H        52        0    0.0000
    830 H         134.2778  133.1660   61.2891 H        52        0    0.0000
    831 H         131.6821  133.8200   61.8834 H        52        0    0.0000
    832 H         133.4588  131.7795   62.7326 H        52        0    0.0000
    833 H         131.9585  130.9209   62.4179 H        52        0    0.0000
    834 H         130.7683  133.1729   59.7881 H        52        0    0.0000
    835 H         130.3094  131.7842   60.7790 H        52        0    0.0000
    836 H         132.1963  130.4896   60.0294 H        52        0    0.0000
    837 H         130.6743  130.4761   58.1739 H        52        0    0.0000
    838 H         132.2610  130.7859   57.4759 H        52        0    0.0000
    839 C         130.9598  132.5250   57.4791 C.3      53        0    0.0000
    840 C         131.8219  133.0378   56.3167 C.3      53        0    0.0000
    841 H         130.9625  133.2885   58.2676 H        53        0    0.0000
    842 H         129.9152  132.3938   57.1734 H        53        0    0.0000
    843 H         132.8528  132.6997   56.4824 H        53        0    0.0000
    844 H         131.5005  132.6068   55.3613 H        53        0    0.0000
    845 C         128.4038  135.0161   57.6296 C.3      54        0    0.0000
    846 C         129.4260  134.2586   56.7960 C.3      54        0    0.0000
    847 C         130.5706  135.2648   56.6597 C.3      54        0    0.0000
    848 C         131.8713  134.6008   56.2012 C.3      54        0    0.0000
    849 C         130.6409  135.9292   58.0469 C.3      54        0    0.0000
    850 C         129.2576  135.7152   58.6952 C.3      54        0    0.0000
    851 C         128.6261  136.9629   59.3256 C.3      54        0    0.0000
    852 H         127.6624  134.3455   58.0752 H        54        0    0.0000
    853 H         127.8700  135.7305   56.9938 H        54        0    0.0000
    854 H         129.7536  133.3556   57.3254 H        54        0    0.0000
    855 H         129.0210  133.9585   55.8247 H        54        0    0.0000
    856 H         130.2715  136.0294   55.9280 H        54        0    0.0000
    857 H         132.0932  134.8796   55.1643 H        54        0    0.0000
    858 H         132.7027  134.9728   56.8118 H        54        0    0.0000
    859 H         131.4062  135.4564   58.6750 H        54        0    0.0000
    860 H         130.9139  136.9858   57.9561 H        54        0    0.0000
    861 H         129.4029  134.9947   59.5138 H        54        0    0.0000
    862 H         127.5503  136.7940   59.4539 H        54        0    0.0000
    863 H         128.7310  137.8046   58.6305 H        54        0    0.0000
    864 C         129.9551  134.4706   63.0270 C.3      55        0    0.0000
    865 C         129.8246  135.0185   61.6141 C.3      55        0    0.0000
    866 C         129.0521  136.3295   61.8079 C.3      55        0    0.0000
    867 C         129.2385  137.3702   60.6965 C.3      55        0    0.0000
    868 C         129.3996  136.8118   63.2314 C.3      55        0    0.0000
    869 C         130.2894  135.7174   63.8485 C.3      55        0    0.0000
    870 C         130.0813  135.4932   65.3483 C.3      55        0    0.0000
    871 H         129.0063  134.0257   63.3509 H        55        0    0.0000
    872 H         130.7345  133.7059   63.0994 H        55        0    0.0000
    873 H         130.8217  135.1850   61.1924 H        55        0    0.0000
    874 H         129.2938  134.3249   60.9544 H        55        0    0.0000
    875 H         127.9821  136.0736   61.8160 H        55        0    0.0000
    876 H         128.7858  138.3165   61.0158 H        55        0    0.0000
    877 H         130.3094  137.5638   60.5630 H        55        0    0.0000
    878 H         128.4710  136.9370   63.8023 H        55        0    0.0000
    879 H         129.9121  137.7794   63.2439 H        55        0    0.0000
    880 H         131.3400  135.9825   63.6598 H        55        0    0.0000
    881 H         129.3139  134.7276   65.5134 H        55        0    0.0000
    882 H         131.0088  135.1092   65.7894 H        55        0    0.0000
    883 C         129.6751  136.7947   66.0951 C.3      56        0    0.0000
    884 C         129.5369  136.6248   67.6147 C.3      56        0    0.0000
    885 H         128.6984  137.0972   65.6961 H        56        0    0.0000
    886 H         130.3779  137.5983   65.8458 H        56        0    0.0000
    887 H         128.7318  135.9035   67.8049 H        56        0    0.0000
    888 H         130.4478  136.2004   68.0531 H        56        0    0.0000
    889 C         127.1007  140.2202   66.2773 C.3      57        0    0.0000
    890 C         127.9129  138.9239   66.3310 C.3      57        0    0.0000
    891 C         128.9943  139.1263   67.4076 C.3      57        0    0.0000
    892 C         129.1514  137.9432   68.3708 C.3      57        0    0.0000
    893 C         128.5803  140.4138   68.1274 C.3      57        0    0.0000
    894 C         127.9186  141.2677   67.0406 C.3      57        0    0.0000
    895 C         128.9492  141.9939   66.1553 C.3      57        0    0.0000
    896 H         126.8623  140.5092   65.2493 H        57        0    0.0000
    897 H         126.1466  140.0610   66.7961 H        57        0    0.0000
    898 H         127.2524  138.0764   66.5452 H        57        0    0.0000
    899 H         128.3853  138.7293   65.3611 H        57        0    0.0000
    900 H         129.9533  139.3108   66.9027 H        57        0    0.0000
    901 H         129.9393  138.1699   69.0989 H        57        0    0.0000
    902 H         128.2278  137.7878   68.9402 H        57        0    0.0000
    903 H         129.4333  140.9122   68.5993 H        57        0    0.0000
    904 H         127.8484  140.1926   68.9151 H        57        0    0.0000
    905 H         127.2532  142.0055   67.5066 H        57        0    0.0000
    906 H         128.6328  142.0037   65.1064 H        57        0    0.0000
    907 H         129.9048  141.4577   66.1947 H        57        0    0.0000
    908 C         129.1936  143.4547   66.6330 C.3      58        0    0.0000
    909 C         130.3747  143.6047   67.6024 C.3      58        0    0.0000
    910 H         129.4115  144.0489   65.7363 H        58        0    0.0000
    911 H         128.2708  143.8622   67.0624 H        58        0    0.0000
    912 H         131.0098  142.7110   67.5987 H        58        0    0.0000
    913 H         131.0001  144.4354   67.2511 H        58        0    0.0000
    914 C         127.0129  144.7146   67.8286 C.3      59        0    0.0000
    915 C         128.3579  145.4451   67.7866 C.3      59        0    0.0000
    916 C         129.0385  145.1851   69.1350 C.3      59        0    0.0000
    917 C         129.9523  143.9467   69.0732 C.3      59        0    0.0000
    918 C         127.8376  145.0420   70.0787 C.3      59        0    0.0000
    919 C         126.8176  144.2312   69.2752 C.3      59        0    0.0000
    920 C         125.3909  144.3934   69.8118 C.3      59        0    0.0000
    921 H         126.2145  145.3905   67.5018 H        59        0    0.0000
    922 H         127.0165  143.8607   67.1416 H        59        0    0.0000
    923 H         128.1725  146.5210   67.6760 H        59        0    0.0000
    924 H         128.9648  145.1352   66.9298 H        59        0    0.0000
    925 H         129.6398  146.0573   69.4223 H        59        0    0.0000
    926 H         129.4174  143.0832   69.4869 H        59        0    0.0000
    927 H         130.8482  144.0829   69.6882 H        59        0    0.0000
    928 H         127.4358  146.0375   70.3088 H        59        0    0.0000
    929 H         128.0831  144.5602   71.0298 H        59        0    0.0000
    930 H         127.1002  143.1703   69.3267 H        59        0    0.0000
    931 H         124.9495  143.4126   70.0239 H        59        0    0.0000
    932 H         124.7649  144.8647   69.0449 H        59        0    0.0000
    933 C         121.9991  144.9720   72.8345 C.3      60        0    0.0000
    934 C         123.0242  144.4209   71.8551 C.3      60        0    0.0000
    935 C         123.9399  145.6209   71.5816 C.3      60        0    0.0000
    936 C         125.3521  145.2701   71.0964 C.3      60        0    0.0000
    937 C         123.8742  146.4937   72.8518 C.3      60        0    0.0000
    938 C         122.8514  145.8175   73.7831 C.3      60        0    0.0000
    939 C         122.0040  146.7848   74.6133 C.3      60        0    0.0000
    940 H         121.2632  145.5903   72.3061 H        60        0    0.0000
    941 H         121.4636  144.1746   73.3588 H        60        0    0.0000
    942 H         123.5628  143.5876   72.3191 H        60        0    0.0000
    943 H         122.5549  144.0477   70.9395 H        60        0    0.0000
    944 H         123.4717  146.2049   70.7752 H        60        0    0.0000
    945 H         125.9031  146.1985   70.9043 H        60        0    0.0000
    946 H         125.8870  144.7478   71.8984 H        60        0    0.0000
    947 H         123.5501  147.5044   72.5738 H        60        0    0.0000
    948 H         124.8427  146.5979   73.3520 H        60        0    0.0000
    949 H         123.3960  145.1379   74.4548 H        60        0    0.0000
    950 H         121.9862  147.7738   74.1402 H        60        0    0.0000
    951 H         120.9671  146.4289   74.6373 H        60        0    0.0000
    952 C         119.0922  147.9746   77.2542 C.3      61        0    0.0000
    953 C         120.5031  148.3187   76.7696 C.3      61        0    0.0000
    954 C         121.3752  147.0948   77.0791 C.3      61        0    0.0000
    955 C         122.5175  146.9249   76.0738 C.3      61        0    0.0000
    956 C         120.3647  145.9431   77.0982 C.3      61        0    0.0000
    957 C         119.1706  146.5572   77.8363 C.3      61        0    0.0000
    958 C         117.8564  145.7881   77.6747 C.3      61        0    0.0000
    959 H         118.7420  148.6894   78.0066 H        61        0    0.0000
    960 H         118.3942  148.0237   76.4099 H        61        0    0.0000
    961 H         120.8906  149.2134   77.2688 H        61        0    0.0000
    962 H         120.4779  148.5319   75.6942 H        61        0    0.0000
    963 H         121.7884  147.2157   78.0912 H        61        0    0.0000
    964 H         123.0934  146.0272   76.3286 H        61        0    0.0000
    965 H         123.2094  147.7729   76.1375 H        61        0    0.0000
    966 H         120.7576  145.0629   77.6170 H        61        0    0.0000
    967 H         120.0867  145.6475   76.0787 H        61        0    0.0000
    968 H         119.4223  146.6387   78.9038 H        61        0    0.0000
    969 H         118.0560  144.7190   77.5371 H        61        0    0.0000
    970 H         117.3442  146.1332   76.7685 H        61        0    0.0000
    971 C         116.9039  145.9847   78.8858 C.3      62        0    0.0000
    972 C         116.6792  147.4539   79.2708 C.3      62        0    0.0000
    973 H         115.9350  145.5557   78.5997 H        62        0    0.0000
    974 H         117.2659  145.3996   79.7393 H        62        0    0.0000
    975 H         116.9323  148.1264   78.4428 H        62        0    0.0000
    976 H         115.6093  147.5933   79.4722 H        62        0    0.0000
    977 C         117.3789  151.2700   82.0129 C.3      63        0    0.0000
    978 C         117.0500  150.4092   80.7942 C.3      63        0    0.0000
    979 C         116.7054  149.0068   81.3248 C.3      63        0    0.0000
    980 C         117.4450  147.8978   80.5650 C.3      63        0    0.0000
    981 C         117.0339  149.0646   82.8246 C.3      63        0    0.0000
    982 C         116.8041  150.5281   83.2224 C.3      63        0    0.0000
    983 C         115.3278  150.8912   83.4655 C.3      63        0    0.0000
    984 H         118.4695  151.3377   82.1156 H        63        0    0.0000
    985 H         117.0000  152.2917   81.9096 H        63        0    0.0000
    986 H         117.8907  150.4047   80.0917 H        63        0    0.0000
    987 H         116.1864  150.8227   80.2601 H        63        0    0.0000
    988 H         115.6224  148.8593   81.2087 H        63        0    0.0000
    989 H         117.6030  147.0302   81.2161 H        63        0    0.0000
    990 H         118.4383  148.2593   80.2730 H        63        0    0.0000
    991 H         116.4284  148.3615   83.4048 H        63        0    0.0000
    992 H         118.0878  148.8080   82.9939 H        63        0    0.0000
    993 H         117.3889  150.7729   84.1182 H        63        0    0.0000
    994 H         114.8068  150.0948   84.0077 H        63        0    0.0000
    995 H         114.8186  150.9977   82.5000 H        63        0    0.0000
    996 C         111.8498  153.2305   82.7671 C.3      64        0    0.0000
    997 C         113.3465  153.4745   82.9771 C.3      64        0    0.0000
    998 C         113.7281  152.7295   84.2629 C.3      64        0    0.0000
    999 C         115.1758  152.2314   84.2392 C.3      64        0    0.0000
   1000 C         112.6731  151.6216   84.3496 C.3      64        0    0.0000
   1001 C         111.3893  152.3482   83.9349 C.3      64        0    0.0000
   1002 C         110.2311  151.4254   83.5457 C.3      64        0    0.0000
   1003 H         111.2905  154.1719   82.7418 H        64        0    0.0000
   1004 H         111.6928  152.7334   81.8024 H        64        0    0.0000
   1005 H         113.5697  154.5435   83.0616 H        64        0    0.0000
   1006 H         113.9032  153.0938   82.1124 H        64        0    0.0000
   1007 H         113.5870  153.4153   85.1110 H        64        0    0.0000
   1008 H         115.5239  152.0814   85.2682 H        64        0    0.0000
   1009 H         115.8309  152.9877   83.7911 H        64        0    0.0000
   1010 H         112.5993  151.2052   85.3593 H        64        0    0.0000
   1011 H         112.9037  150.8042   83.6550 H        64        0    0.0000
   1012 H         111.0769  153.0062   84.7589 H        64        0    0.0000
   1013 H         109.9904  150.7477   84.3731 H        64        0    0.0000
   1014 H         110.5373  150.7968   82.7010 H        64        0    0.0000
   1015 C         108.9576  152.2155   83.1373 C.3      65        0    0.0000
   1016 C         108.6067  152.1058   81.6466 C.3      65        0    0.0000
   1017 H         109.1535  153.2713   83.3642 H        65        0    0.0000
   1018 H         108.1151  151.9103   83.7690 H        65        0    0.0000
   1019 H         109.5320  151.9007   81.0932 H        65        0    0.0000
   1020 H         107.9340  151.2612   81.4563 H        65        0    0.0000
   1021 C         108.9100  156.9701   80.4896 C.3      66        0    0.0000
   1022 C         108.9846  155.5379   79.9546 C.3      66        0    0.0000
   1023 C         108.9498  154.6078   81.1804 C.3      66        0    0.0000
   1024 C         107.9959  153.4154   81.0378 C.3      66        0    0.0000
   1025 C         108.5662  155.5257   82.3456 C.3      66        0    0.0000
   1026 C         109.1929  156.8790   81.9930 C.3      66        0    0.0000
   1027 C         110.6947  156.9369   82.3311 C.3      66        0    0.0000
   1028 H         109.5871  157.6413   79.9527 H        66        0    0.0000
   1029 H         107.8921  157.3513   80.3376 H        66        0    0.0000
   1030 H         108.1593  155.3547   79.2577 H        66        0    0.0000
   1031 H         109.9173  155.3864   79.3988 H        66        0    0.0000
   1032 H         109.9687  154.2358   81.3602 H        66        0    0.0000
   1033 H         107.0572  153.6368   81.5596 H        66        0    0.0000
   1034 H         107.7426  153.2516   79.9841 H        66        0    0.0000
   1035 H         108.9130  155.1342   83.3074 H        66        0    0.0000
   1036 H         107.4753  155.6321   82.4049 H        66        0    0.0000
   1037 H         108.6667  157.6790   82.5292 H        66        0    0.0000
   1038 H         111.2044  157.7046   81.7385 H        66        0    0.0000
   1039 H         111.1618  155.9774   82.0788 H        66        0    0.0000
   1040 C         107.3716  156.3851   84.1401 C.3      67        0    0.0000
   1041 C         108.7890  155.8363   83.9839 C.3      67        0    0.0000
   1042 C         109.7255  156.8223   84.7035 C.3      67        0    0.0000
   1043 C         110.9361  157.2098   83.8441 C.3      67        0    0.0000
   1044 C         108.8256  158.0069   85.0877 C.3      67        0    0.0000
   1045 C         107.4333  157.3951   85.2889 C.3      67        0    0.0000
   1046 C         107.2343  156.7165   86.6565 C.3      67        0    0.0000
   1047 H         107.0889  156.9058   83.2162 H        67        0    0.0000
   1048 H         106.6375  155.5893   84.3002 H        67        0    0.0000
   1049 H         109.0352  155.7107   82.9238 H        67        0    0.0000
   1050 H         108.8663  154.8478   84.4517 H        67        0    0.0000
   1051 H         110.0805  156.3387   85.6245 H        67        0    0.0000
   1052 H         111.8293  156.6696   84.1786 H        67        0    0.0000
   1053 H         111.1452  158.2784   83.9742 H        67        0    0.0000
   1054 H         109.1956  158.5332   85.9729 H        67        0    0.0000
   1055 H         108.7826  158.7345   84.2668 H        67        0    0.0000
   1056 H         106.6599  158.1611   85.1494 H        67        0    0.0000
   1057 H         108.1931  156.4270   87.0998 H        67        0    0.0000
   1058 H         106.6603  155.7919   86.5204 H        67        0    0.0000
   1059 C         106.4553  157.6237   87.6506 C.3      68        0    0.0000
   1060 C         105.2150  156.9571   88.2628 C.3      68        0    0.0000
   1061 H         107.1481  157.8679   88.4661 H        68        0    0.0000
   1062 H         106.1990  158.5714   87.1628 H        68        0    0.0000
   1063 H         104.9960  155.9993   87.7766 H        68        0    0.0000
   1064 H         105.4336  156.7323   89.3146 H        68        0    0.0000
   1065 C         104.6213  160.6426   86.6465 C.3      69        0    0.0000
   1066 C         105.3397  159.9247   87.7922 C.3      69        0    0.0000
   1067 C         104.2483  159.3084   88.6742 C.3      69        0    0.0000
   1068 C         103.9341  157.8614   88.2500 C.3      69        0    0.0000
   1069 C         103.0873  160.2926   88.4835 C.3      69        0    0.0000
   1070 C         103.1230  160.6379   86.9926 C.3      69        0    0.0000
   1071 C         102.3950  161.9502   86.6803 C.3      69        0    0.0000
   1072 H         105.0221  161.6566   86.5362 H        69        0    0.0000
   1073 H         104.7920  160.1213   85.6977 H        69        0    0.0000
   1074 H         105.9019  160.6647   88.3757 H        69        0    0.0000
   1075 H         106.0635  159.1903   87.4244 H        69        0    0.0000
   1076 H         104.5729  159.3094   89.7227 H        69        0    0.0000
   1077 H         103.5259  157.8649   87.2320 H        69        0    0.0000
   1078 H         103.1666  157.4167   88.8925 H        69        0    0.0000
   1079 H         103.2703  161.1916   89.0865 H        69        0    0.0000
   1080 H         102.1164  159.8883   88.7850 H        69        0    0.0000
   1081 H         102.6419  159.8213   86.4360 H        69        0    0.0000
   1082 H         101.5274  161.7613   86.0374 H        69        0    0.0000
   1083 H         103.0654  162.6146   86.1225 H        69        0    0.0000
   1084 C         101.7171  160.3452   90.9677 C.3      70        0    0.0000
   1085 C         101.5221  160.6120   89.4816 C.3      70        0    0.0000
   1086 C         102.2698  161.9326   89.2705 C.3      70        0    0.0000
   1087 C         101.9340  162.6784   87.9755 C.3      70        0    0.0000
   1088 C         102.0579  162.7313   90.5714 C.3      70        0    0.0000
   1089 C         101.4949  161.7256   91.5946 C.3      70        0    0.0000
   1090 C         102.0073  161.8862   93.0292 C.3      70        0    0.0000
   1091 H         101.0079  159.6026   91.3462 H        70        0    0.0000
   1092 H         102.7307  159.9697   91.1463 H        70        0    0.0000
   1093 H         101.9298  159.8053   88.8646 H        70        0    0.0000
   1094 H         100.4533  160.7034   89.2593 H        70        0    0.0000
   1095 H         103.3417  161.6878   89.2211 H        70        0    0.0000
   1096 H         100.8502  162.8364   87.9240 H        70        0    0.0000
   1097 H         102.3962  163.6723   88.0042 H        70        0    0.0000
   1098 H         101.3551  163.5628   90.4508 H        70        0    0.0000
   1099 H         103.0085  163.1739   90.8882 H        70        0    0.0000
   1100 H         100.4071  161.8878   91.6314 H        70        0    0.0000
   1101 H         101.3077  161.3956   93.7162 H        70        0    0.0000
   1102 H         102.9655  161.3626   93.1283 H        70        0    0.0000
   1103 C         102.1965  163.3659   93.4796 C.3      71        0    0.0000
   1104 C         101.3415  163.7633   94.6914 C.3      71        0    0.0000
   1105 H         101.8988  163.9958   92.6316 H        71        0    0.0000
   1106 H         103.2597  163.5643   93.6593 H        71        0    0.0000
   1107 H         100.4561  163.1151   94.7106 H        71        0    0.0000
   1108 H         101.8775  163.5896   95.6319 H        71        0    0.0000
   1109 C         100.8197  165.2412   94.6458 C.3      72        0    0.0000
   1110 C          99.4322  165.4326   95.2749 C.3      72        0    0.0000
   1111 H         100.7548  165.5217   93.5867 H        72        0    0.0000
   1112 H         101.5601  165.9087   95.1020 H        72        0    0.0000
   1113 H          98.8932  164.4789   95.2073 H        72        0    0.0000
   1114 H          99.5079  165.6749   96.3415 H        72        0    0.0000
   1115 C          94.9888  167.0079   95.6978 C.3      73        0    0.0000
   1116 C          96.4486  166.6484   95.9868 C.3      73        0    0.0000
   1117 C          97.0516  166.1909   94.6522 C.3      73        0    0.0000
   1118 C          98.5468  166.5052   94.5509 C.3      73        0    0.0000
   1119 C          96.1779  166.9017   93.6133 C.3      73        0    0.0000
   1120 C          94.7706  166.7526   94.2007 C.3      73        0    0.0000
   1121 C          93.7240  167.6929   93.5964 C.3      73        0    0.0000
   1122 H          94.3013  166.4072   96.3030 H        73        0    0.0000
   1123 H          94.8140  168.0595   95.9552 H        73        0    0.0000
   1124 H          96.5243  165.8596   96.7430 H        73        0    0.0000
   1125 H          96.9699  167.5285   96.3820 H        73        0    0.0000
   1126 H          96.8949  165.1063   94.5593 H        73        0    0.0000
   1127 H          98.7426  167.4836   95.0057 H        73        0    0.0000
   1128 H          98.8495  166.5790   93.4998 H        73        0    0.0000
   1129 H          96.2596  166.4389   92.6247 H        73        0    0.0000
   1130 H          96.4562  167.9593   93.5234 H        73        0    0.0000
   1131 H          94.4467  165.7092   94.0748 H        73        0    0.0000
   1132 H          92.7533  167.5450   94.0839 H        73        0    0.0000
   1133 H          93.5861  167.4476   92.5365 H        73        0    0.0000
   1134 C          91.3875  171.6499   92.8041 C.3      74        0    0.0000
   1135 C          92.1658  170.3732   92.5182 C.3      74        0    0.0000
   1136 C          92.9578  170.1588   93.8122 C.3      74        0    0.0000
   1137 C          94.1365  169.1863   93.7082 C.3      74        0    0.0000
   1138 C          93.3061  171.5739   94.3140 C.3      74        0    0.0000
   1139 C          92.4293  172.5385   93.4917 C.3      74        0    0.0000
   1140 C          91.8659  173.7373   94.2610 C.3      74        0    0.0000
   1141 H          90.9988  172.1055   91.8881 H        74        0    0.0000
   1142 H          90.5387  171.4268   93.4598 H        74        0    0.0000
   1143 H          91.5028  169.5310   92.2975 H        74        0    0.0000
   1144 H          92.8218  170.5254   91.6540 H        74        0    0.0000
   1145 H          92.2599  169.7267   94.5453 H        74        0    0.0000
   1146 H          94.7427  169.4507   92.8335 H        74        0    0.0000
   1147 H          94.7810  169.3088   94.5867 H        74        0    0.0000
   1148 H          94.3621  171.8279   94.1720 H        74        0    0.0000
   1149 H          93.1152  171.6378   95.3906 H        74        0    0.0000
   1150 H          93.0711  172.9502   92.6982 H        74        0    0.0000
   1151 H          92.3677  173.8064   95.2335 H        74        0    0.0000
   1152 H          92.1065  174.6579   93.7163 H        74        0    0.0000
   1153 C          90.3263  173.6819   94.4950 C.3      75        0    0.0000
   1154 C          89.9253  173.2072   95.8990 C.3      75        0    0.0000
   1155 H          89.9484  174.7034   94.3601 H        75        0    0.0000
   1156 H          89.8563  173.0686   93.7172 H        75        0    0.0000
   1157 H          90.6396  172.4739   96.2913 H        75        0    0.0000
   1158 H          89.9610  174.0721   96.5739 H        75        0    0.0000
   1159 C          87.5627  176.0354   94.9711 C.3      76        0    0.0000
   1160 C          87.7844  174.5952   94.5117 C.3      76        0    0.0000
   1161 C          87.4041  173.6908   95.6967 C.3      76        0    0.0000
   1162 C          88.4713  172.6265   95.9841 C.3      76        0    0.0000
   1163 C          87.1554  174.6590   96.8635 C.3      76        0    0.0000
   1164 C          86.6589  175.9518   96.2039 C.3      76        0    0.0000
   1165 C          85.1685  175.9310   95.8183 C.3      76        0    0.0000
   1166 H          88.5289  176.4684   95.2602 H        76        0    0.0000
   1167 H          87.1529  176.6634   94.1737 H        76        0    0.0000
   1168 H          88.8198  174.4543   94.1827 H        76        0    0.0000
   1169 H          87.1404  174.3677   93.6540 H        76        0    0.0000
   1170 H          86.4574  173.1905   95.4486 H        76        0    0.0000
   1171 H          88.3683  171.7860   95.2879 H        76        0    0.0000
   1172 H          88.3180  172.2230   96.9922 H        76        0    0.0000
   1173 H          86.4493  174.2500   97.5928 H        76        0    0.0000
   1174 H          88.0940  174.8646   97.3946 H        76        0    0.0000
   1175 H          86.8503  176.8095   96.8613 H        76        0    0.0000
   1176 H          84.7826  174.9068   95.7784 H        76        0    0.0000
   1177 H          85.0504  176.3497   94.8115 H        76        0    0.0000
   1178 C          82.0046  173.8627   96.9239 C.3      77        0    0.0000
   1179 C          82.5953  174.9826   96.0639 C.3      77        0    0.0000
   1180 C          82.9205  176.1456   97.0183 C.3      77        0    0.0000
   1181 C          84.3010  176.7751   96.7945 C.3      77        0    0.0000
   1182 C          82.7745  175.5425   98.4190 C.3      77        0    0.0000
   1183 C          81.6616  174.4987   98.2755 C.3      77        0    0.0000
   1184 C          80.2566  175.1296   98.3085 C.3      77        0    0.0000
   1185 H          81.1537  173.3791   96.4348 H        77        0    0.0000
   1186 H          82.7706  173.0910   97.0737 H        77        0    0.0000
   1187 H          83.4755  174.6162   95.5241 H        77        0    0.0000
   1188 H          81.8678  175.3105   95.3122 H        77        0    0.0000
   1189 H          82.1474  176.9178   96.8969 H        77        0    0.0000
   1190 H          84.1780  177.7792   96.3713 H        77        0    0.0000
   1191 H          84.8265  176.8949   97.7489 H        77        0    0.0000
   1192 H          82.5483  176.3043   99.1720 H        77        0    0.0000
   1193 H          83.7057  175.0452   98.7198 H        77        0    0.0000
   1194 H          81.7476  173.7563   99.0790 H        77        0    0.0000
   1195 H          79.9043  175.3643   97.2980 H        77        0    0.0000
   1196 H          80.2957  176.0764   98.8602 H        77        0    0.0000
   1197 C          78.4548  170.9021   97.3166 C.3      78        0    0.0000
   1198 C          79.4533  171.9904   97.6803 C.3      78        0    0.0000
   1199 C          78.5635  173.1724   98.0854 C.3      78        0    0.0000
   1200 C          79.2234  174.2020   99.0114 C.3      78        0    0.0000
   1201 C          77.2561  172.5481   98.6148 C.3      78        0    0.0000
   1202 C          77.3958  171.0280   98.4137 C.3      78        0    0.0000
   1203 C          76.0957  170.3087   98.0462 C.3      78        0    0.0000
   1204 H          78.0244  171.0972   96.3267 H        78        0    0.0000
   1205 H          78.9175  169.9106   97.2998 H        78        0    0.0000
   1206 H          80.0848  171.6464   98.5066 H        78        0    0.0000
   1207 H          80.1086  172.2410   96.8402 H        78        0    0.0000
   1208 H          78.3028  173.7096   97.1613 H        78        0    0.0000
   1209 H          78.4429  174.8255   99.4637 H        78        0    0.0000
   1210 H          79.7215  173.6761   99.8346 H        78        0    0.0000
   1211 H          76.4113  172.9483   98.0404 H        78        0    0.0000
   1212 H          77.0633  172.7828   99.6670 H        78        0    0.0000
   1213 H          77.8052  170.5959   99.3385 H        78        0    0.0000
   1214 H          76.2347  169.7197   97.1319 H        78        0    0.0000
   1215 H          75.8370  169.5991   98.8412 H        78        0    0.0000
   1216 C          71.5574  169.5222   98.1635 C.3      79        0    0.0000
   1217 C          73.0164  169.5235   97.7292 C.3      79        0    0.0000
   1218 C          73.5721  170.7830   98.4019 C.3      79        0    0.0000
   1219 C          74.9068  171.2902   97.8473 C.3      79        0    0.0000
   1220 C          72.4139  171.7995   98.3796 C.3      79        0    0.0000
   1221 C          71.1539  170.9923   98.0103 C.3      79        0    0.0000
   1222 C          69.8704  171.4012   98.7393 C.3      79        0    0.0000
   1223 H          70.9463  168.8610   97.5414 H        79        0    0.0000
   1224 H          71.4807  169.1797   99.2014 H        79        0    0.0000
   1225 H          73.5403  168.6189   98.0534 H        79        0    0.0000
   1226 H          73.0772  169.5788   96.6367 H        79        0    0.0000
   1227 H          73.7490  170.5288   99.4580 H        79        0    0.0000
   1228 H          74.7946  171.4950   96.7760 H        79        0    0.0000
   1229 H          75.1543  172.2449   98.3263 H        79        0    0.0000
   1230 H          72.5638  172.5997   97.6467 H        79        0    0.0000
   1231 H          72.3357  172.2870   99.3573 H        79        0    0.0000
   1232 H          70.9723  171.1631   96.9384 H        79        0    0.0000
   1233 H          69.2157  170.5264   98.8296 H        79        0    0.0000
   1234 H          70.1218  171.7132   99.7600 H        79        0    0.0000
   1235 C          69.0781  172.5499   98.0457 C.3      80        0    0.0000
   1236 C          67.6036  172.6328   98.4657 C.3      80        0    0.0000
   1237 H          69.1142  172.3529   96.9666 H        80        0    0.0000
   1238 H          69.5932  173.5040   98.2075 H        80        0    0.0000
   1239 H          67.5676  172.8477   99.5414 H        80        0    0.0000
   1240 H          67.0917  173.4618   97.9631 H        80        0    0.0000
   1241 C          66.6055  168.8854   95.3546 C.3      81        0    0.0000
   1242 C          66.5678  169.1806   96.8563 C.3      81        0    0.0000
   1243 C          67.3338  170.4949   97.0562 C.3      81        0    0.0000
   1244 C          66.8019  171.3038   98.2426 C.3      81        0    0.0000
   1245 C          67.1956  171.1887   95.6970 C.3      81        0    0.0000
   1246 C          67.3927  170.0337   94.7097 C.3      81        0    0.0000
   1247 C          66.9267  170.3287   93.2812 C.3      81        0    0.0000
   1248 H          67.0795  167.9198   95.1483 H        81        0    0.0000
   1249 H          65.5810  168.8338   94.9669 H        81        0    0.0000
   1250 H          67.0221  168.3692   97.4351 H        81        0    0.0000
   1251 H          65.5253  169.2697   97.1847 H        81        0    0.0000
   1252 H          68.3939  170.2521   97.2199 H        81        0    0.0000
   1253 H          66.8709  170.6978   99.1539 H        81        0    0.0000
   1254 H          65.7407  171.5377   98.0981 H        81        0    0.0000
   1255 H          67.9447  171.9752   95.5613 H        81        0    0.0000
   1256 H          66.2004  171.6367   95.5840 H        81        0    0.0000
   1257 H          68.4571  169.7571   94.7014 H        81        0    0.0000
   1258 H          65.8940  170.6967   93.2866 H        81        0    0.0000
   1259 H          66.9277  169.3984   92.7008 H        81        0    0.0000
   1260 H          67.5672  171.0524   92.7772 H        81        0    0.0000
   1261 H         170.4004   82.2497  221.0036 H         0        0    0.0000
@<TRIPOS>BOND
     1     1     2      1
     2     1     6      1
     3     1     8      1
     4     1     9      1
     5     2     3      1
     6     2    10      1
     7     2    11      1
     8     3     4      1
     9     3     5      1
    10     3    12      1
    11     4    13      1
    12     4    14      1
    13     4  1261      H
    14     5     6      1
    15     5    15      1
    16     5    16      1
    17     6     7      1
    18     6    17      1
    19     7    18      1
    20     7    19      1
    21     7    23      1
    22    20    21      1
    23    20    25      1
    24    20    27      1
    25    20    28      1
    26    21    22      1
    27    21    29      1
    28    21    30      1
    29    22    23      1
    30    22    24      1
    31    22    31      1
    32    23    32      1
    33    23    33      1
    34    24    25      1
    35    24    34      1
    36    24    35      1
    37    25    26      1
    38    25    36      1
    39    26    37      1
    40    26    38      1
    41    26    39      1
    42    39    40      1
    43    39    41      1
    44    39    42      1
    45    40    43      1
    46    40    44      1
    47    40    48      1
    48    45    46      1
    49    45    50      1
    50    45    52      1
    51    45    53      1
    52    46    47      1
    53    46    54      1
    54    46    55      1
    55    47    48      1
    56    47    49      1
    57    47    56      1
    58    48    57      1
    59    48    58      1
    60    49    50      1
    61    49    59      1
    62    49    60      1
    63    50    51      1
    64    50    61      1
    65    51    62      1
    66    51    63      1
    67    51    64      1
    68    64    65      1
    69    64    66      1
    70    64    67      1
    71    65    68      1
    72    65    69      1
    73    65    73      1
    74    70    71      1
    75    70    75      1
    76    70    77      1
    77    70    78      1
    78    71    72      1
    79    71    79      1
    80    71    80      1
    81    72    73      1
    82    72    74      1
    83    72    81      1
    84    73    82      1
    85    73    83      1
    86    74    75      1
    87    74    84      1
    88    74    85      1
    89    75    76      1
    90    75    86      1
    91    76    87      1
    92    76    88      1
    93    76    92      1
    94    89    90      1
    95    89    94      1
    96    89    96      1
    97    89    97      1
    98    90    91      1
    99    90    98      1
   100    90    99      1
   101    91    92      1
   102    91    93      1
   103    91   100      1
   104    92   101      1
   105    92   102      1
   106    93    94      1
   107    93   103      1
   108    93   104      1
   109    94    95      1
   110    94   105      1
   111    95   106      1
   112    95   107      1
   113    95   108      1
   114   108   109      1
   115   108   110      1
   116   108   111      1
   117   109   112      1
   118   109   113      1
   119   109   114      1
   120   114   115      1
   121   114   116      1
   122   114   117      1
   123   115   118      1
   124   115   119      1
   125   115   120      1
   126   120   121      1
   127   120   122      1
   128   120   123      1
   129   121   124      1
   130   121   125      1
   131   121   126      1
   132   126   127      1
   133   126   128      1
   134   126   129      1
   135   127   130      1
   136   127   131      1
   137   127   135      1
   138   132   133      1
   139   132   137      1
   140   132   139      1
   141   132   140      1
   142   133   134      1
   143   133   141      1
   144   133   142      1
   145   134   135      1
   146   134   136      1
   147   134   143      1
   148   135   144      1
   149   135   145      1
   150   136   137      1
   151   136   146      1
   152   136   147      1
   153   137   138      1
   154   137   148      1
   155   138   149      1
   156   138   150      1
   157   138   154      1
   158   151   152      1
   159   151   156      1
   160   151   158      1
   161   151   159      1
   162   152   153      1
   163   152   160      1
   164   152   161      1
   165   153   154      1
   166   153   155      1
   167   153   162      1
   168   154   163      1
   169   154   164      1
   170   155   156      1
   171   155   165      1
   172   155   166      1
   173   156   157      1
   174   156   167      1
   175   157   168      1
   176   157   169      1
   177   157   170      1
   178   170   171      1
   179   170   172      1
   180   170   173      1
   181   171   174      1
   182   171   175      1
   183   171   179      1
   184   176   177      1
   185   176   181      1
   186   176   183      1
   187   176   184      1
   188   177   178      1
   189   177   185      1
   190   177   186      1
   191   178   179      1
   192   178   180      1
   193   178   187      1
   194   179   188      1
   195   179   189      1
   196   180   181      1
   197   180   190      1
   198   180   191      1
   199   181   182      1
   200   181   192      1
   201   182   193      1
   202   182   194      1
   203   182   195      1
   204   195   196      1
   205   195   197      1
   206   195   198      1
   207   196   199      1
   208   196   200      1
   209   196   204      1
   210   201   202      1
   211   201   206      1
   212   201   208      1
   213   201   209      1
   214   202   203      1
   215   202   210      1
   216   202   211      1
   217   203   204      1
   218   203   205      1
   219   203   212      1
   220   204   213      1
   221   204   214      1
   222   205   206      1
   223   205   215      1
   224   205   216      1
   225   206   207      1
   226   206   217      1
   227   207   218      1
   228   207   219      1
   229   207   223      1
   230   220   221      1
   231   220   225      1
   232   220   227      1
   233   220   228      1
   234   221   222      1
   235   221   229      1
   236   221   230      1
   237   222   223      1
   238   222   224      1
   239   222   231      1
   240   223   232      1
   241   223   233      1
   242   224   225      1
   243   224   234      1
   244   224   235      1
   245   225   226      1
   246   225   236      1
   247   226   237      1
   248   226   238      1
   249   226   242      1
   250   239   240      1
   251   239   244      1
   252   239   246      1
   253   239   247      1
   254   240   241      1
   255   240   248      1
   256   240   249      1
   257   241   242      1
   258   241   243      1
   259   241   250      1
   260   242   251      1
   261   242   252      1
   262   243   244      1
   263   243   253      1
   264   243   254      1
   265   244   245      1
   266   244   255      1
   267   245   256      1
   268   245   257      1
   269   245   261      1
   270   258   259      1
   271   258   263      1
   272   258   265      1
   273   258   266      1
   274   259   260      1
   275   259   267      1
   276   259   268      1
   277   260   261      1
   278   260   262      1
   279   260   269      1
   280   261   270      1
   281   261   271      1
   282   262   263      1
   283   262   272      1
   284   262   273      1
   285   263   264      1
   286   263   274      1
   287   264   275      1
   288   264   276      1
   289   264   277      1
   290   277   278      1
   291   277   279      1
   292   277   280      1
   293   278   281      1
   294   278   282      1
   295   278   286      1
   296   283   284      1
   297   283   288      1
   298   283   290      1
   299   283   291      1
   300   284   285      1
   301   284   292      1
   302   284   293      1
   303   285   286      1
   304   285   287      1
   305   285   294      1
   306   286   295      1
   307   286   296      1
   308   287   288      1
   309   287   297      1
   310   287   298      1
   311   288   289      1
   312   288   299      1
   313   289   300      1
   314   289   301      1
   315   289   305      1
   316   302   303      1
   317   302   307      1
   318   302   309      1
   319   302   310      1
   320   303   304      1
   321   303   311      1
   322   303   312      1
   323   304   305      1
   324   304   306      1
   325   304   313      1
   326   305   314      1
   327   305   315      1
   328   306   307      1
   329   306   316      1
   330   306   317      1
   331   307   308      1
   332   307   318      1
   333   308   319      1
   334   308   320      1
   335   308   324      1
   336   321   322      1
   337   321   326      1
   338   321   328      1
   339   321   329      1
   340   322   323      1
   341   322   330      1
   342   322   331      1
   343   323   324      1
   344   323   325      1
   345   323   332      1
   346   324   333      1
   347   324   334      1
   348   325   326      1
   349   325   335      1
   350   325   336      1
   351   326   327      1
   352   326   337      1
   353   327   338      1
   354   327   339      1
   355   327   343      1
   356   340   341      1
   357   340   345      1
   358   340   347      1
   359   340   348      1
   360   341   342      1
   361   341   349      1
   362   341   350      1
   363   342   343      1
   364   342   344      1
   365   342   351      1
   366   343   352      1
   367   343   353      1
   368   344   345      1
   369   344   354      1
   370   344   355      1
   371   345   346      1
   372   345   356      1
   373   346   357      1
   374   346   358      1
   375   346   362      1
   376   359   360      1
   377   359   364      1
   378   359   366      1
   379   359   367      1
   380   360   361      1
   381   360   368      1
   382   360   369      1
   383   361   362      1
   384   361   363      1
   385   361   370      1
   386   362   371      1
   387   362   372      1
   388   363   364      1
   389   363   373      1
   390   363   374      1
   391   364   365      1
   392   364   375      1
   393   365   376      1
   394   365   377      1
   395   365   381      1
   396   378   379      1
   397   378   383      1
   398   378   385      1
   399   378   386      1
   400   379   380      1
   401   379   387      1
   402   379   388      1
   403   380   381      1
   404   380   382      1
   405   380   389      1
   406   381   390      1
   407   381   391      1
   408   382   383      1
   409   382   392      1
   410   382   393      1
   411   383   384      1
   412   383   394      1
   413   384   395      1
   414   384   396      1
   415   384   397      1
   416   397   398      1
   417   397   399      1
   418   397   400      1
   419   398   401      1
   420   398   402      1
   421   398   406      1
   422   403   404      1
   423   403   408      1
   424   403   410      1
   425   403   411      1
   426   404   405      1
   427   404   412      1
   428   404   413      1
   429   405   406      1
   430   405   407      1
   431   405   414      1
   432   406   415      1
   433   406   416      1
   434   407   408      1
   435   407   417      1
   436   407   418      1
   437   408   409      1
   438   408   419      1
   439   409   420      1
   440   409   421      1
   441   409   425      1
   442   422   423      1
   443   422   427      1
   444   422   429      1
   445   422   430      1
   446   423   424      1
   447   423   431      1
   448   423   432      1
   449   424   425      1
   450   424   426      1
   451   424   433      1
   452   425   434      1
   453   425   435      1
   454   426   427      1
   455   426   436      1
   456   426   437      1
   457   427   428      1
   458   427   438      1
   459   428   439      1
   460   428   440      1
   461   428   444      1
   462   441   442      1
   463   441   446      1
   464   441   448      1
   465   441   449      1
   466   442   443      1
   467   442   450      1
   468   442   451      1
   469   443   444      1
   470   443   445      1
   471   443   452      1
   472   444   453      1
   473   444   454      1
   474   445   446      1
   475   445   455      1
   476   445   456      1
   477   446   447      1
   478   446   457      1
   479   447   458      1
   480   447   459      1
   481   447   463      1
   482   460   461      1
   483   460   465      1
   484   460   467      1
   485   460   468      1
   486   461   462      1
   487   461   469      1
   488   461   470      1
   489   462   463      1
   490   462   464      1
   491   462   471      1
   492   463   472      1
   493   463   473      1
   494   464   465      1
   495   464   474      1
   496   464   475      1
   497   465   466      1
   498   465   476      1
   499   466   477      1
   500   466   478      1
   501   466   479      1
   502   479   480      1
   503   479   481      1
   504   479   482      1
   505   480   483      1
   506   480   484      1
   507   480   488      1
   508   485   486      1
   509   485   490      1
   510   485   492      1
   511   485   493      1
   512   486   487      1
   513   486   494      1
   514   486   495      1
   515   487   488      1
   516   487   489      1
   517   487   496      1
   518   488   497      1
   519   488   498      1
   520   489   490      1
   521   489   499      1
   522   489   500      1
   523   490   491      1
   524   490   501      1
   525   491   502      1
   526   491   503      1
   527   491   507      1
   528   504   505      1
   529   504   509      1
   530   504   511      1
   531   504   512      1
   532   505   506      1
   533   505   513      1
   534   505   514      1
   535   506   507      1
   536   506   508      1
   537   506   515      1
   538   507   516      1
   539   507   517      1
   540   508   509      1
   541   508   518      1
   542   508   519      1
   543   509   510      1
   544   509   520      1
   545   510   521      1
   546   510   522      1
   547   510   526      1
   548   523   524      1
   549   523   528      1
   550   523   530      1
   551   523   531      1
   552   524   525      1
   553   524   532      1
   554   524   533      1
   555   525   526      1
   556   525   527      1
   557   525   534      1
   558   526   535      1
   559   526   536      1
   560   527   528      1
   561   527   537      1
   562   527   538      1
   563   528   529      1
   564   528   539      1
   565   529   540      1
   566   529   541      1
   567   529   545      1
   568   542   543      1
   569   542   547      1
   570   542   549      1
   571   542   550      1
   572   543   544      1
   573   543   551      1
   574   543   552      1
   575   544   545      1
   576   544   546      1
   577   544   553      1
   578   545   554      1
   579   545   555      1
   580   546   547      1
   581   546   556      1
   582   546   557      1
   583   547   548      1
   584   547   558      1
   585   548   559      1
   586   548   560      1
   587   548   564      1
   588   561   562      1
   589   561   566      1
   590   561   568      1
   591   561   569      1
   592   562   563      1
   593   562   570      1
   594   562   571      1
   595   563   564      1
   596   563   565      1
   597   563   572      1
   598   564   573      1
   599   564   574      1
   600   565   566      1
   601   565   575      1
   602   565   576      1
   603   566   567      1
   604   566   577      1
   605   567   578      1
   606   567   579      1
   607   567   583      1
   608   580   581      1
   609   580   585      1
   610   580   587      1
   611   580   588      1
   612   581   582      1
   613   581   589      1
   614   581   590      1
   615   582   583      1
   616   582   584      1
   617   582   591      1
   618   583   592      1
   619   583   593      1
   620   584   585      1
   621   584   594      1
   622   584   595      1
   623   585   586      1
   624   585   596      1
   625   586   597      1
   626   586   598      1
   627   586   602      1
   628   599   600      1
   629   599   604      1
   630   599   606      1
   631   599   607      1
   632   600   601      1
   633   600   608      1
   634   600   609      1
   635   601   602      1
   636   601   603      1
   637   601   610      1
   638   602   611      1
   639   602   612      1
   640   603   604      1
   641   603   613      1
   642   603   614      1
   643   604   605      1
   644   604   615      1
   645   605   616      1
   646   605   617      1
   647   605   621      1
   648   618   619      1
   649   618   623      1
   650   618   625      1
   651   618   626      1
   652   619   620      1
   653   619   627      1
   654   619   628      1
   655   620   621      1
   656   620   622      1
   657   620   629      1
   658   621   630      1
   659   621   631      1
   660   622   623      1
   661   622   632      1
   662   622   633      1
   663   623   624      1
   664   623   634      1
   665   624   635      1
   666   624   636      1
   667   624   640      1
   668   637   638      1
   669   637   642      1
   670   637   644      1
   671   637   645      1
   672   638   639      1
   673   638   646      1
   674   638   647      1
   675   639   640      1
   676   639   641      1
   677   639   648      1
   678   640   649      1
   679   640   650      1
   680   641   642      1
   681   641   651      1
   682   641   652      1
   683   642   643      1
   684   642   653      1
   685   643   654      1
   686   643   655      1
   687   643   659      1
   688   656   657      1
   689   656   661      1
   690   656   663      1
   691   656   664      1
   692   657   658      1
   693   657   665      1
   694   657   666      1
   695   658   659      1
   696   658   660      1
   697   658   667      1
   698   659   668      1
   699   659   669      1
   700   660   661      1
   701   660   670      1
   702   660   671      1
   703   661   662      1
   704   661   672      1
   705   662   673      1
   706   662   674      1
   707   662   675      1
   708   675   676      1
   709   675   677      1
   710   675   678      1
   711   676   679      1
   712   676   680      1
   713   676   684      1
   714   681   682      1
   715   681   686      1
   716   681   688      1
   717   681   689      1
   718   682   683      1
   719   682   690      1
   720   682   691      1
   721   683   684      1
   722   683   685      1
   723   683   692      1
   724   684   693      1
   725   684   694      1
   726   685   686      1
   727   685   695      1
   728   685   696      1
   729   686   687      1
   730   686   697      1
   731   687   698      1
   732   687   699      1
   733   687   703      1
   734   700   701      1
   735   700   705      1
   736   700   707      1
   737   700   708      1
   738   701   702      1
   739   701   709      1
   740   701   710      1
   741   702   703      1
   742   702   704      1
   743   702   711      1
   744   703   712      1
   745   703   713      1
   746   704   705      1
   747   704   714      1
   748   704   715      1
   749   705   706      1
   750   705   716      1
   751   706   717      1
   752   706   718      1
   753   706   722      1
   754   719   720      1
   755   719   724      1
   756   719   726      1
   757   719   727      1
   758   720   721      1
   759   720   728      1
   760   720   729      1
   761   721   722      1
   762   721   723      1
   763   721   730      1
   764   722   731      1
   765   722   732      1
   766   723   724      1
   767   723   733      1
   768   723   734      1
   769   724   725      1
   770   724   735      1
   771   725   736      1
   772   725   737      1
   773   725   741      1
   774   738   739      1
   775   738   743      1
   776   738   745      1
   777   738   746      1
   778   739   740      1
   779   739   747      1
   780   739   748      1
   781   740   741      1
   782   740   742      1
   783   740   749      1
   784   741   750      1
   785   741   751      1
   786   742   743      1
   787   742   752      1
   788   742   753      1
   789   743   744      1
   790   743   754      1
   791   744   755      1
   792   744   756      1
   793   744   760      1
   794   757   758      1
   795   757   762      1
   796   757   764      1
   797   757   765      1
   798   758   759      1
   799   758   766      1
   800   758   767      1
   801   759   760      1
   802   759   761      1
   803   759   768      1
   804   760   769      1
   805   760   770      1
   806   761   762      1
   807   761   771      1
   808   761   772      1
   809   762   763      1
   810   762   773      1
   811   763   774      1
   812   763   775      1
   813   763   779      1
   814   776   777      1
   815   776   781      1
   816   776   783      1
   817   776   784      1
   818   777   778      1
   819   777   785      1
   820   777   786      1
   821   778   779      1
   822   778   780      1
   823   778   787      1
   824   779   788      1
   825   779   789      1
   826   780   781      1
   827   780   790      1
   828   780   791      1
   829   781   782      1
   830   781   792      1
   831   782   793      1
   832   782   794      1
   833   782   795      1
   834   795   796      1
   835   795   797      1
   836   795   798      1
   837   796   799      1
   838   796   800      1
   839   796   804      1
   840   801   802      1
   841   801   806      1
   842   801   808      1
   843   801   809      1
   844   802   803      1
   845   802   810      1
   846   802   811      1
   847   803   804      1
   848   803   805      1
   849   803   812      1
   850   804   813      1
   851   804   814      1
   852   805   806      1
   853   805   815      1
   854   805   816      1
   855   806   807      1
   856   806   817      1
   857   807   818      1
   858   807   819      1
   859   807   823      1
   860   820   821      1
   861   820   825      1
   862   820   827      1
   863   820   828      1
   864   821   822      1
   865   821   829      1
   866   821   830      1
   867   822   823      1
   868   822   824      1
   869   822   831      1
   870   823   832      1
   871   823   833      1
   872   824   825      1
   873   824   834      1
   874   824   835      1
   875   825   826      1
   876   825   836      1
   877   826   837      1
   878   826   838      1
   879   826   839      1
   880   839   840      1
   881   839   841      1
   882   839   842      1
   883   840   843      1
   884   840   844      1
   885   840   848      1
   886   845   846      1
   887   845   850      1
   888   845   852      1
   889   845   853      1
   890   846   847      1
   891   846   854      1
   892   846   855      1
   893   847   848      1
   894   847   849      1
   895   847   856      1
   896   848   857      1
   897   848   858      1
   898   849   850      1
   899   849   859      1
   900   849   860      1
   901   850   851      1
   902   850   861      1
   903   851   862      1
   904   851   863      1
   905   851   867      1
   906   864   865      1
   907   864   869      1
   908   864   871      1
   909   864   872      1
   910   865   866      1
   911   865   873      1
   912   865   874      1
   913   866   867      1
   914   866   868      1
   915   866   875      1
   916   867   876      1
   917   867   877      1
   918   868   869      1
   919   868   878      1
   920   868   879      1
   921   869   870      1
   922   869   880      1
   923   870   881      1
   924   870   882      1
   925   870   883      1
   926   883   884      1
   927   883   885      1
   928   883   886      1
   929   884   887      1
   930   884   888      1
   931   884   892      1
   932   889   890      1
   933   889   894      1
   934   889   896      1
   935   889   897      1
   936   890   891      1
   937   890   898      1
   938   890   899      1
   939   891   892      1
   940   891   893      1
   941   891   900      1
   942   892   901      1
   943   892   902      1
   944   893   894      1
   945   893   903      1
   946   893   904      1
   947   894   895      1
   948   894   905      1
   949   895   906      1
   950   895   907      1
   951   895   908      1
   952   908   909      1
   953   908   910      1
   954   908   911      1
   955   909   912      1
   956   909   913      1
   957   909   917      1
   958   914   915      1
   959   914   919      1
   960   914   921      1
   961   914   922      1
   962   915   916      1
   963   915   923      1
   964   915   924      1
   965   916   917      1
   966   916   918      1
   967   916   925      1
   968   917   926      1
   969   917   927      1
   970   918   919      1
   971   918   928      1
   972   918   929      1
   973   919   920      1
   974   919   930      1
   975   920   931      1
   976   920   932      1
   977   920   936      1
   978   933   934      1
   979   933   938      1
   980   933   940      1
   981   933   941      1
   982   934   935      1
   983   934   942      1
   984   934   943      1
   985   935   936      1
   986   935   937      1
   987   935   944      1
   988   936   945      1
   989   936   946      1
   990   937   938      1
   991   937   947      1
   992   937   948      1
   993   938   939      1
   994   938   949      1
   995   939   950      1
   996   939   951      1
   997   939   955      1
   998   952   953      1
   999   952   957      1
  1000   952   959      1
  1001   952   960      1
  1002   953   954      1
  1003   953   961      1
  1004   953   962      1
  1005   954   955      1
  1006   954   956      1
  1007   954   963      1
  1008   955   964      1
  1009   955   965      1
  1010   956   957      1
  1011   956   966      1
  1012   956   967      1
  1013   957   958      1
  1014   957   968      1
  1015   958   969      1
  1016   958   970      1
  1017   958   971      1
  1018   971   972      1
  1019   971   973      1
  1020   971   974      1
  1021   972   975      1
  1022   972   976      1
  1023   972   980      1
  1024   977   978      1
  1025   977   982      1
  1026   977   984      1
  1027   977   985      1
  1028   978   979      1
  1029   978   986      1
  1030   978   987      1
  1031   979   980      1
  1032   979   981      1
  1033   979   988      1
  1034   980   989      1
  1035   980   990      1
  1036   981   982      1
  1037   981   991      1
  1038   981   992      1
  1039   982   983      1
  1040   982   993      1
  1041   983   994      1
  1042   983   995      1
  1043   983   999      1
  1044   996   997      1
  1045   996  1001      1
  1046   996  1003      1
  1047   996  1004      1
  1048   997   998      1
  1049   997  1005      1
  1050   997  1006      1
  1051   998   999      1
  1052   998  1000      1
  1053   998  1007      1
  1054   999  1008      1
  1055   999  1009      1
  1056  1000  1001      1
  1057  1000  1010      1
  1058  1000  1011      1
  1059  1001  1002      1
  1060  1001  1012      1
  1061  1002  1013      1
  1062  1002  1014      1
  1063  1002  1015      1
  1064  1015  1016      1
  1065  1015  1017      1
  1066  1015  1018      1
  1067  1016  1019      1
  1068  1016  1020      1
  1069  1016  1024      1
  1070  1021  1022      1
  1071  1021  1026      1
  1072  1021  1028      1
  1073  1021  1029      1
  1074  1022  1023      1
  1075  1022  1030      1
  1076  1022  1031      1
  1077  1023  1024      1
  1078  1023  1025      1
  1079  1023  1032      1
  1080  1024  1033      1
  1081  1024  1034      1
  1082  1025  1026      1
  1083  1025  1035      1
  1084  1025  1036      1
  1085  1026  1027      1
  1086  1026  1037      1
  1087  1027  1038      1
  1088  1027  1039      1
  1089  1027  1043      1
  1090  1040  1041      1
  1091  1040  1045      1
  1092  1040  1047      1
  1093  1040  1048      1
  1094  1041  1042      1
  1095  1041  1049      1
  1096  1041  1050      1
  1097  1042  1043      1
  1098  1042  1044      1
  1099  1042  1051      1
  1100  1043  1052      1
  1101  1043  1053      1
  1102  1044  1045      1
  1103  1044  1054      1
  1104  1044  1055      1
  1105  1045  1046      1
  1106  1045  1056      1
  1107  1046  1057      1
  1108  1046  1058      1
  1109  1046  1059      1
  1110  1059  1060      1
  1111  1059  1061      1
  1112  1059  1062      1
  1113  1060  1063      1
  1114  1060  1064      1
  1115  1060  1068      1
  1116  1065  1066      1
  1117  1065  1070      1
  1118  1065  1072      1
  1119  1065  1073      1
  1120  1066  1067      1
  1121  1066  1074      1
  1122  1066  1075      1
  1123  1067  1068      1
  1124  1067  1069      1
  1125  1067  1076      1
  1126  1068  1077      1
  1127  1068  1078      1
  1128  1069  1070      1
  1129  1069  1079      1
  1130  1069  1080      1
  1131  1070  1071      1
  1132  1070  1081      1
  1133  1071  1082      1
  1134  1071  1083      1
  1135  1071  1087      1
  1136  1084  1085      1
  1137  1084  1089      1
  1138  1084  1091      1
  1139  1084  1092      1
  1140  1085  1086      1
  1141  1085  1093      1
  1142  1085  1094      1
  1143  1086  1087      1
  1144  1086  1088      1
  1145  1086  1095      1
  1146  1087  1096      1
  1147  1087  1097      1
  1148  1088  1089      1
  1149  1088  1098      1
  1150  1088  1099      1
  1151  1089  1090      1
  1152  1089  1100      1
  1153  1090  1101      1
  1154  1090  1102      1
  1155  1090  1103      1
  1156  1103  1104      1
  1157  1103  1105      1
  1158  1103  1106      1
  1159  1104  1107      1
  1160  1104  1108      1
  1161  1104  1109      1
  1162  1109  1110      1
  1163  1109  1111      1
  1164  1109  1112      1
  1165  1110  1113      1
  1166  1110  1114      1
  1167  1110  1118      1
  1168  1115  1116      1
  1169  1115  1120      1
  1170  1115  1122      1
  1171  1115  1123      1
  1172  1116  1117      1
  1173  1116  1124      1
  1174  1116  1125      1
  1175  1117  1118      1
  1176  1117  1119      1
  1177  1117  1126      1
  1178  1118  1127      1
  1179  1118  1128      1
  1180  1119  1120      1
  1181  1119  1129      1
  1182  1119  1130      1
  1183  1120  1121      1
  1184  1120  1131      1
  1185  1121  1132      1
  1186  1121  1133      1
  1187  1121  1137      1
  1188  1134  1135      1
  1189  1134  1139      1
  1190  1134  1141      1
  1191  1134  1142      1
  1192  1135  1136      1
  1193  1135  1143      1
  1194  1135  1144      1
  1195  1136  1137      1
  1196  1136  1138      1
  1197  1136  1145      1
  1198  1137  1146      1
  1199  1137  1147      1
  1200  1138  1139      1
  1201  1138  1148      1
  1202  1138  1149      1
  1203  1139  1140      1
  1204  1139  1150      1
  1205  1140  1151      1
  1206  1140  1152      1
  1207  1140  1153      1
  1208  1153  1154      1
  1209  1153  1155      1
  1210  1153  1156      1
  1211  1154  1157      1
  1212  1154  1158      1
  1213  1154  1162      1
  1214  1159  1160      1
  1215  1159  1164      1
  1216  1159  1166      1
  1217  1159  1167      1
  1218  1160  1161      1
  1219  1160  1168      1
  1220  1160  1169      1
  1221  1161  1162      1
  1222  1161  1163      1
  1223  1161  1170      1
  1224  1162  1171      1
  1225  1162  1172      1
  1226  1163  1164      1
  1227  1163  1173      1
  1228  1163  1174      1
  1229  1164  1165      1
  1230  1164  1175      1
  1231  1165  1176      1
  1232  1165  1177      1
  1233  1165  1181      1
  1234  1178  1179      1
  1235  1178  1183      1
  1236  1178  1185      1
  1237  1178  1186      1
  1238  1179  1180      1
  1239  1179  1187      1
  1240  1179  1188      1
  1241  1180  1181      1
  1242  1180  1182      1
  1243  1180  1189      1
  1244  1181  1190      1
  1245  1181  1191      1
  1246  1182  1183      1
  1247  1182  1192      1
  1248  1182  1193      1
  1249  1183  1184      1
  1250  1183  1194      1
  1251  1184  1195      1
  1252  1184  1196      1
  1253  1184  1200      1
  1254  1197  1198      1
  1255  1197  1202      1
  1256  1197  1204      1
  1257  1197  1205      1
  1258  1198  1199      1
  1259  1198  1206      1
  1260  1198  1207      1
  1261  1199  1200      1
  1262  1199  1201      1
  1263  1199  1208      1
  1264  1200  1209      1
  1265  1200  1210      1
  1266  1201  1202      1
  1267  1201  1211      1
  1268  1201  1212      1
  1269  1202  1203      1
  1270  1202  1213      1
  1271  1203  1214      1
  1272  1203  1215      1
  1273  1203  1219      1
  1274  1216  1217      1
  1275  1216  1221      1
  1276  1216  1223      1
  1277  1216  1224      1
  1278  1217  1218      1
  1279  1217  1225      1
  1280  1217  1226      1
  1281  1218  1219      1
  1282  1218  1220      1
  1283  1218  1227      1
  1284  1219  1228      1
  1285  1219  1229      1
  1286  1220  1221      1
  1287  1220  1230      1
  1288  1220  1231      1
  1289  1221  1222      1
  1290  1221  1232      1
  1291  1222  1233      1
  1292  1222  1234      1
  1293  1222  1235      1
  1294  1235  1236      1
  1295  1235  1237      1
  1296  1235  1238      1
  1297  1236  1239      1
  1298  1236  1240      1
  1299  1236  1244      1
  1300  1241  1242      1
  1301  1241  1246      1
  1302  1241  1248      1
  1303  1241  1249      1
  1304  1242  1243      1
  1305  1242  1250      1
  1306  1242  1251      1
  1307  1243  1244      1
  1308  1243  1245      1
  1309  1243  1252      1
  1310  1244  1253      1
  1311  1244  1254      1
  1312  1245  1246      1
  1313  1245  1255      1
  1314  1245  1256      1
  1315  1246  1247      1
  1316  1246  1257      1
  1317  1247  1258      1
  1318  1247  1259      1
  1319  1247  1260      H
