###
### Created by PolyChef-cpp17 on Wed Feb 26 21:14:13 2025
###

@<TRIPOS>MOLECULE
NO_INFO
1487 1555 1 0 0
SMALL
USER_CHARGES


@<TRIPOS>ATOM
      1 C          91.0404  142.4092   67.2139 C.3       0        0    0.0000
      2 C          92.3700  142.3689   66.4738 C.3       0        0    0.0000
      3 C          92.6063  140.8678   66.2772 C.3       0        0    0.0000
      4 C          94.0415  140.4694   65.9199 C.3       0        0    0.0000
      5 C          92.0246  140.1971   67.5370 C.3       0        0    0.0000
      6 C          91.1869  141.2821   68.2415 C.3       0        0    0.0000
      7 C          89.8802  140.7984   68.8776 C.3       0        0    0.0000
      8 H          90.8665  143.3794   67.6896 H         0        0    0.0000
      9 H          90.2203  142.2227   66.5118 H         0        0    0.0000
     10 H          92.3243  142.9062   65.5215 H         0        0    0.0000
     11 H          93.1498  142.8318   67.0885 H         0        0    0.0000
     12 H          91.9752  140.5537   65.4321 H         0        0    0.0000
     13 H          94.5480  140.1081   66.8227 H         0        0    0.0000
     14 H          94.0155  139.6294   65.2157 H         0        0    0.0000
     15 H          92.7985  139.8309   68.2202 H         0        0    0.0000
     16 H          91.4314  139.3235   67.2458 H         0        0    0.0000
     17 H          91.8062  141.6766   69.0613 H         0        0    0.0000
     18 H          89.4793  141.5918   69.5195 H         0        0    0.0000
     19 H          89.1390  140.6273   68.0880 H         0        0    0.0000
     20 C          92.4807  140.0273   72.4503 C.3       1        0    0.0000
     21 C          91.8711  140.5785   71.1590 C.3       1        0    0.0000
     22 C          91.4243  139.3619   70.3288 C.3       1        0    0.0000
     23 C          90.0224  139.4960   69.7213 C.3       1        0    0.0000
     24 C          91.5298  138.1792   71.2970 C.3       1        0    0.0000
     25 C          92.7101  138.5314   72.2088 C.3       1        0    0.0000
     26 C          94.0703  138.2255   71.5536 C.3       1        0    0.0000
     27 H          93.3848  140.5718   72.7387 H         1        0    0.0000
     28 H          91.7559  140.1531   73.2648 H         1        0    0.0000
     29 H          91.0456  141.2591   71.3949 H         1        0    0.0000
     30 H          92.6174  141.1559   70.6009 H         1        0    0.0000
     31 H          92.1546  139.2082   69.5215 H         1        0    0.0000
     32 H          89.8251  138.6362   69.0700 H         1        0    0.0000
     33 H          89.2605  139.4793   70.5091 H         1        0    0.0000
     34 H          91.6679  137.2293   70.7705 H         1        0    0.0000
     35 H          90.6154  138.0951   71.8984 H         1        0    0.0000
     36 H          92.6255  137.9756   73.1513 H         1        0    0.0000
     37 H          94.0847  138.5425   70.5050 H         1        0    0.0000
     38 H          94.2427  137.1427   71.5615 H         1        0    0.0000
     39 C          95.2441  138.9081   72.3140 C.3       2        0    0.0000
     40 C          96.0118  139.9418   71.4776 C.3       2        0    0.0000
     41 H          94.8045  139.4263   73.1759 H         2        0    0.0000
     42 H          95.9171  138.1429   72.7182 H         2        0    0.0000
     43 H          96.8266  139.4728   70.9136 H         2        0    0.0000
     44 H          95.3195  140.3627   70.7373 H         2        0    0.0000
     45 C          98.8268  141.1894   75.2572 C.3       3        0    0.0000
     46 C          98.4528  140.4891   73.9486 C.3       3        0    0.0000
     47 C          96.9468  140.7267   73.7370 C.3       3        0    0.0000
     48 C          96.5711  141.1468   72.3106 C.3       3        0    0.0000
     49 C          96.5787  141.7918   74.7749 C.3       3        0    0.0000
     50 C          97.5044  141.5089   75.9630 C.3       3        0    0.0000
     51 C          96.9935  140.3529   76.8437 C.3       3        0    0.0000
     52 H          99.5145  140.5878   75.8591 H         3        0    0.0000
     53 H          99.3439  142.1281   75.0201 H         3        0    0.0000
     54 H          99.0646  140.8780   73.1272 H         3        0    0.0000
     55 H          98.6532  139.4137   74.0206 H         3        0    0.0000
     56 H          96.4121  139.8010   73.9936 H         3        0    0.0000
     57 H          95.8022  141.9274   72.3526 H         3        0    0.0000
     58 H          97.4374  141.5814   71.7987 H         3        0    0.0000
     59 H          95.5180  141.7531   75.0438 H         3        0    0.0000
     60 H          96.7846  142.7957   74.3817 H         3        0    0.0000
     61 H          97.6072  142.4151   76.5733 H         3        0    0.0000
     62 H          97.8160  139.6999   77.1559 H         3        0    0.0000
     63 H          96.2979  139.7341   76.2645 H         3        0    0.0000
     64 C          96.2436  140.8745   78.1036 C.3       4        0    0.0000
     65 C          96.7079  140.2298   79.4174 C.3       4        0    0.0000
     66 H          96.4399  141.9526   78.1654 H         4        0    0.0000
     67 H          95.1623  140.7603   77.9636 H         4        0    0.0000
     68 H          96.1210  139.3339   79.6514 H         4        0    0.0000
     69 H          97.7462  139.8992   79.2861 H         4        0    0.0000
     70 C          99.6353  142.1259   81.7799 C.3       5        0    0.0000
     71 C          99.0937  140.7608   81.3470 C.3       5        0    0.0000
     72 C          97.6226  140.7187   81.7747 C.3       5        0    0.0000
     73 C          96.6953  141.2053   80.6450 C.3       5        0    0.0000
     74 C          97.6253  141.6106   83.0227 C.3       5        0    0.0000
     75 C          98.5505  142.7738   82.6564 C.3       5        0    0.0000
     76 C          99.0860  143.5046   83.8930 C.3       5        0    0.0000
     77 H         100.5828  141.9952   82.3149 H         5        0    0.0000
     78 H          99.8403  142.7541   80.9056 H         5        0    0.0000
     79 H          99.6477  139.9762   81.8779 H         5        0    0.0000
     80 H          99.2372  140.5850   80.2760 H         5        0    0.0000
     81 H          97.3437  139.6927   82.0471 H         5        0    0.0000
     82 H          97.0306  142.1921   80.3036 H         5        0    0.0000
     83 H          95.6673  141.3309   81.0012 H         5        0    0.0000
     84 H          98.0386  141.0482   83.8702 H         5        0    0.0000
     85 H          96.6298  141.9581   83.3148 H         5        0    0.0000
     86 H          97.9852  143.4851   82.0381 H         5        0    0.0000
     87 H          98.3471  144.2271   84.2586 H         5        0    0.0000
     88 H          99.9809  144.0758   83.6191 H         5        0    0.0000
     89 C         100.7715  144.1468   88.1708 C.3       6        0    0.0000
     90 C          99.9786  144.2094   86.8627 C.3       6        0    0.0000
     91 C         100.5227  143.0823   85.9750 C.3       6        0    0.0000
     92 C          99.4553  142.5150   85.0351 C.3       6        0    0.0000
     93 C         101.0793  142.0779   86.9895 C.3       6        0    0.0000
     94 C         101.7618  142.9847   88.0190 C.3       6        0    0.0000
     95 C         102.0751  142.3085   89.3566 C.3       6        0    0.0000
     96 H         101.2972  145.0879   88.3655 H         6        0    0.0000
     97 H         100.0827  143.9804   89.0076 H         6        0    0.0000
     98 H         100.0897  145.1830   86.3735 H         6        0    0.0000
     99 H          98.9116  144.0727   87.0758 H         6        0    0.0000
    100 H         101.3589  143.4846   85.3847 H         6        0    0.0000
    101 H          98.5485  142.2918   85.6099 H         6        0    0.0000
    102 H          99.7955  141.5675   84.6012 H         6        0    0.0000
    103 H         101.7847  141.3793   86.5285 H         6        0    0.0000
    104 H         100.2710  141.4975   87.4518 H         6        0    0.0000
    105 H         102.6888  143.3798   87.5784 H         6        0    0.0000
    106 H         102.4632  141.2969   89.1896 H         6        0    0.0000
    107 H         101.1488  142.2005   89.9334 H         6        0    0.0000
    108 C         103.0932  143.1194   90.2045 C.3       7        0    0.0000
    109 C         103.7040  142.3287   91.3703 C.3       7        0    0.0000
    110 H         103.9068  143.4119   89.5283 H         7        0    0.0000
    111 H         102.6266  144.0481   90.5535 H         7        0    0.0000
    112 H         103.8986  142.9765   92.2331 H         7        0    0.0000
    113 H         102.9687  141.5825   91.6978 H         7        0    0.0000
    114 C         105.0082  141.5439   90.9938 C.3       8        0    0.0000
    115 C         105.7053  140.8816   92.1909 C.3       8        0    0.0000
    116 H         105.7020  142.2736   90.5569 H         8        0    0.0000
    117 H         104.7857  140.8132   90.2074 H         8        0    0.0000
    118 H         105.5475  141.5177   93.0713 H         8        0    0.0000
    119 H         105.2587  139.9078   92.4237 H         8        0    0.0000
    120 C         107.2558  140.7242   92.0181 C.3       9        0    0.0000
    121 C         107.9743  140.2094   93.2735 C.3       9        0    0.0000
    122 H         107.4124  139.9948   91.2130 H         9        0    0.0000
    123 H         107.6869  141.6707   91.6716 H         9        0    0.0000
    124 H         108.9680  139.8150   93.0309 H         9        0    0.0000
    125 H         108.1308  141.0602   93.9491 H         9        0    0.0000
    126 C         107.1617  139.1363   94.0778 C.3      10        0    0.0000
    127 C         107.0958  139.4064   95.5878 C.3      10        0    0.0000
    128 H         107.6693  138.1752   93.9257 H        10        0    0.0000
    129 H         106.1590  139.0329   93.6469 H        10        0    0.0000
    130 H         107.2093  140.4866   95.7457 H        10        0    0.0000
    131 H         106.1180  139.1305   96.0000 H        10        0    0.0000
    132 C         106.3582  138.0489   99.6505 C.3      11        0    0.0000
    133 C         106.3656  138.4851   98.1921 C.3      11        0    0.0000
    134 C         107.7583  138.0597   97.7153 C.3      11        0    0.0000
    135 C         108.2325  138.7067   96.4105 C.3      11        0    0.0000
    136 C         108.6829  138.2620   98.9317 C.3      11        0    0.0000
    137 C         107.7483  138.4682  100.1398 C.3      11        0    0.0000
    138 C         108.2081  137.8191  101.4487 C.3      11        0    0.0000
    139 H         105.5585  138.5345  100.2184 H        11        0    0.0000
    140 H         106.2092  136.9652   99.7118 H        11        0    0.0000
    141 H         105.5690  138.0029   97.6171 H        11        0    0.0000
    142 H         106.2219  139.5694   98.1294 H        11        0    0.0000
    143 H         107.7143  136.9761   97.5287 H        11        0    0.0000
    144 H         109.0084  139.4469   96.6392 H        11        0    0.0000
    145 H         108.7028  137.9417   95.7813 H        11        0    0.0000
    146 H         109.3415  139.1308   98.8260 H        11        0    0.0000
    147 H         109.3369  137.3905   99.0433 H        11        0    0.0000
    148 H         107.7073  139.5521  100.3261 H        11        0    0.0000
    149 H         107.3326  137.6291  102.0809 H        11        0    0.0000
    150 H         108.6545  136.8425  101.2271 H        11        0    0.0000
    151 C         111.5762  136.4024  104.1601 C.3      12        0    0.0000
    152 C         110.4924  136.6192  103.1008 C.3      12        0    0.0000
    153 C         109.7722  137.9194  103.4814 C.3      12        0    0.0000
    154 C         109.2351  138.6669  102.2578 C.3      12        0    0.0000
    155 C         110.8322  138.6833  104.2818 C.3      12        0    0.0000
    156 C         111.4656  137.5806  105.1368 C.3      12        0    0.0000
    157 C         112.8155  137.9506  105.7576 C.3      12        0    0.0000
    158 H         111.4424  135.4475  104.6799 H        12        0    0.0000
    159 H         112.5596  136.3736  103.6757 H        12        0    0.0000
    160 H         109.7920  135.7777  103.0667 H        12        0    0.0000
    161 H         110.9590  136.6938  102.1112 H        12        0    0.0000
    162 H         108.9399  137.6657  104.1542 H        12        0    0.0000
    163 H         110.0706  138.9265  101.5967 H        12        0    0.0000
    164 H         108.7688  139.6109  102.5633 H        12        0    0.0000
    165 H         110.3898  139.4738  104.8963 H        12        0    0.0000
    166 H         111.5751  139.1390  103.6152 H        12        0    0.0000
    167 H         110.7574  137.3021  105.9308 H        12        0    0.0000
    168 H         112.9288  139.0402  105.7995 H        12        0    0.0000
    169 H         113.6232  137.5731  105.1192 H        12        0    0.0000
    170 C         112.9933  137.3571  107.1820 C.3      13        0    0.0000
    171 C         113.7229  138.2894  108.1598 C.3      13        0    0.0000
    172 H         111.9859  137.1715  107.5760 H        13        0    0.0000
    173 H         113.4888  136.3813  107.1165 H        13        0    0.0000
    174 H         114.7762  138.4131  107.8822 H        13        0    0.0000
    175 H         113.2616  139.2830  108.0911 H        13        0    0.0000
    176 C         110.7245  135.5979  109.8474 C.3      14        0    0.0000
    177 C         111.7833  136.2252  108.9419 C.3      14        0    0.0000
    178 C         113.0371  136.4341  109.8086 C.3      14        0    0.0000
    179 C         113.6204  137.8455  109.6601 C.3      14        0    0.0000
    180 C         112.5871  136.0897  111.2368 C.3      14        0    0.0000
    181 C         111.4784  135.0446  111.0594 C.3      14        0    0.0000
    182 C         111.9931  133.6156  110.8075 C.3      14        0    0.0000
    183 H         110.0321  136.3819  110.1797 H        14        0    0.0000
    184 H         110.1301  134.8427  109.3235 H        14        0    0.0000
    185 H         111.4079  137.1564  108.5036 H        14        0    0.0000
    186 H         112.0192  135.5503  108.1107 H        14        0    0.0000
    187 H         113.7916  135.6999  109.4923 H        14        0    0.0000
    188 H         114.6094  137.9003  110.1295 H        14        0    0.0000
    189 H         112.9787  138.5599  110.1896 H        14        0    0.0000
    190 H         113.4178  135.7344  111.8543 H        14        0    0.0000
    191 H         112.1683  136.9774  111.7286 H        14        0    0.0000
    192 H         110.8177  135.0416  111.9358 H        14        0    0.0000
    193 H         111.7917  133.2961  109.7794 H        14        0    0.0000
    194 H         111.4572  132.9183  111.4628 H        14        0    0.0000
    195 C         113.5136  133.4818  111.1045 C.3      15        0    0.0000
    196 C         114.0254  134.4453  112.1848 C.3      15        0    0.0000
    197 H         113.6783  132.4557  111.4576 H        15        0    0.0000
    198 H         114.0826  133.5878  110.1734 H        15        0    0.0000
    199 H         114.9828  134.1080  112.5989 H        15        0    0.0000
    200 H         114.2132  135.4179  111.7122 H        15        0    0.0000
    201 C         115.7070  133.2603  115.3764 C.3      16        0    0.0000
    202 C         115.0740  134.5419  114.8365 C.3      16        0    0.0000
    203 C         113.5648  134.2699  114.7123 C.3      16        0    0.0000
    204 C         113.0055  134.6971  113.3489 C.3      16        0    0.0000
    205 C         113.4119  132.7703  115.0098 C.3      16        0    0.0000
    206 C         114.5597  132.4404  115.9724 C.3      16        0    0.0000
    207 C         114.2846  132.8253  117.4375 C.3      16        0    0.0000
    208 H         116.1516  132.7048  114.5407 H        16        0    0.0000
    209 H         116.5101  133.4671  116.0907 H        16        0    0.0000
    210 H         115.5362  134.8244  113.8843 H        16        0    0.0000
    211 H         115.2420  135.3706  115.5344 H        16        0    0.0000
    212 H         113.0539  134.8379  115.5026 H        16        0    0.0000
    213 H         112.7217  135.7557  113.3683 H        16        0    0.0000
    214 H         112.0919  134.1282  113.1381 H        16        0    0.0000
    215 H         112.4255  132.5317  115.4195 H        16        0    0.0000
    216 H         113.5358  132.1848  114.0895 H        16        0    0.0000
    217 H         114.8027  131.3715  115.9190 H        16        0    0.0000
    218 H         114.5413  133.8729  117.6282 H        16        0    0.0000
    219 H         114.9223  132.2221  118.0950 H        16        0    0.0000
    220 C         113.4079  128.8511  117.9740 C.3      17        0    0.0000
    221 C         112.9500  130.1052  117.2248 C.3      17        0    0.0000
    222 C         112.5633  131.1310  118.2982 C.3      17        0    0.0000
    223 C         112.8040  132.5720  117.8397 C.3      17        0    0.0000
    224 C         113.3966  130.6987  119.5093 C.3      17        0    0.0000
    225 C         113.2789  129.1715  119.4690 C.3      17        0    0.0000
    226 C         114.3169  128.4290  120.3151 C.3      17        0    0.0000
    227 H         112.8006  127.9801  117.7052 H        17        0    0.0000
    228 H         114.4447  128.6210  117.7010 H        17        0    0.0000
    229 H         112.1032  129.8898  116.5642 H        17        0    0.0000
    230 H         113.7684  130.4730  116.5944 H        17        0    0.0000
    231 H         111.4989  130.9922  118.5372 H        17        0    0.0000
    232 H         112.5410  133.2593  118.6527 H        17        0    0.0000
    233 H         112.1495  132.8166  116.9949 H        17        0    0.0000
    234 H         113.0064  131.1145  120.4436 H        17        0    0.0000
    235 H         114.4416  131.0152  119.4004 H        17        0    0.0000
    236 H         112.2668  128.8890  119.7938 H        17        0    0.0000
    237 H         115.1725  128.1352  119.6958 H        17        0    0.0000
    238 H         113.8737  127.5034  120.7015 H        17        0    0.0000
    239 C         117.9888  128.3330  123.1938 C.3      18        0    0.0000
    240 C         117.0399  128.0713  122.0217 C.3      18        0    0.0000
    241 C         115.6263  128.4353  122.5100 C.3      18        0    0.0000
    242 C         114.8157  129.2772  121.5170 C.3      18        0    0.0000
    243 C         115.8567  129.1618  123.8391 C.3      18        0    0.0000
    244 C         117.1016  128.4942  124.4330 C.3      18        0    0.0000
    245 C         116.7775  127.1559  125.1237 C.3      18        0    0.0000
    246 H         118.7436  127.5467  123.2903 H        18        0    0.0000
    247 H         118.5253  129.2729  123.0109 H        18        0    0.0000
    248 H         117.3523  128.6553  121.1490 H        18        0    0.0000
    249 H         117.0730  127.0143  121.7327 H        18        0    0.0000
    250 H         115.0834  127.5028  122.7205 H        18        0    0.0000
    251 H         113.9439  129.7025  122.0284 H        18        0    0.0000
    252 H         115.4133  130.1209  121.1531 H        18        0    0.0000
    253 H         114.9846  129.0979  124.4979 H        18        0    0.0000
    254 H         116.0613  130.2258  123.6623 H        18        0    0.0000
    255 H         117.5740  129.1726  125.1547 H        18        0    0.0000
    256 H         117.5376  126.3998  124.8982 H        18        0    0.0000
    257 H         115.8234  126.7718  124.7435 H        18        0    0.0000
    258 C         117.6142  124.0732  128.1917 C.3      19        0    0.0000
    259 C         117.2008  124.8082  126.9143 C.3      19        0    0.0000
    260 C         116.3149  125.9881  127.3525 C.3      19        0    0.0000
    261 C         116.6539  127.3173  126.6667 C.3      19        0    0.0000
    262 C         116.4915  126.0544  128.8729 C.3      19        0    0.0000
    263 C         116.6961  124.5973  129.3013 C.3      19        0    0.0000
    264 C         115.3682  123.8233  129.4044 C.3      19        0    0.0000
    265 H         117.5793  122.9869  128.0660 H        19        0    0.0000
    266 H         118.6528  124.3361  128.4301 H        19        0    0.0000
    267 H         118.0909  125.1269  126.3606 H        19        0    0.0000
    268 H         116.6323  124.1402  126.2568 H        19        0    0.0000
    269 H         115.2673  125.7298  127.1416 H        19        0    0.0000
    270 H         115.8633  128.0471  126.8780 H        19        0    0.0000
    271 H         117.5845  127.7309  127.0721 H        19        0    0.0000
    272 H         115.6348  126.5260  129.3651 H        19        0    0.0000
    273 H         117.3843  126.6397  129.1286 H        19        0    0.0000
    274 H         117.2124  124.5675  130.2692 H        19        0    0.0000
    275 H         115.5385  122.7838  129.7059 H        19        0    0.0000
    276 H         114.8863  123.7946  128.4200 H        19        0    0.0000
    277 C         114.3843  124.4951  130.4057 C.3      20        0    0.0000
    278 C         113.8176  123.5358  131.4621 C.3      20        0    0.0000
    279 H         114.9485  125.2797  130.9261 H        20        0    0.0000
    280 H         113.5825  124.9993  129.8537 H        20        0    0.0000
    281 H         112.7701  123.7662  131.6891 H        20        0    0.0000
    282 H         113.8321  122.5213  131.0435 H        20        0    0.0000
    283 C         114.4098  127.1470  132.6054 C.3      21        0    0.0000
    284 C         113.6826  125.8469  132.9450 C.3      21        0    0.0000
    285 C         114.7501  124.8661  133.4601 C.3      21        0    0.0000
    286 C         114.6482  123.4890  132.7912 C.3      21        0    0.0000
    287 C         116.0880  125.5819  133.2186 C.3      21        0    0.0000
    288 C         115.7598  127.0767  133.3238 C.3      21        0    0.0000
    289 C         115.6656  127.6015  134.7681 C.3      21        0    0.0000
    290 H         114.5790  127.1864  131.5217 H        21        0    0.0000
    291 H         113.8209  128.0300  132.8728 H        21        0    0.0000
    292 H         113.1447  125.4699  132.0682 H        21        0    0.0000
    293 H         112.9368  126.0236  133.7289 H        21        0    0.0000
    294 H         114.6058  124.7493  134.5435 H        21        0    0.0000
    295 H         114.2013  122.7630  133.4803 H        21        0    0.0000
    296 H         115.6558  123.1246  132.5574 H        21        0    0.0000
    297 H         116.8590  125.2605  133.9256 H        21        0    0.0000
    298 H         116.4585  125.3661  132.2079 H        21        0    0.0000
    299 H         116.5030  127.6668  132.7725 H        21        0    0.0000
    300 H         116.6442  127.5895  135.2600 H        21        0    0.0000
    301 H         115.0141  126.9392  135.3510 H        21        0    0.0000
    302 C         115.7062  131.8855  137.0560 C.3      22        0    0.0000
    303 C         114.6521  131.0913  136.2862 C.3      22        0    0.0000
    304 C         115.1434  129.6340  136.2417 C.3      22        0    0.0000
    305 C         115.0708  129.0369  134.8302 C.3      22        0    0.0000
    306 C         116.5623  129.6816  136.8292 C.3      22        0    0.0000
    307 C         116.5399  130.8531  137.8192 C.3      22        0    0.0000
    308 C         115.9159  130.5128  139.1850 C.3      22        0    0.0000
    309 H         116.3497  132.4100  136.3381 H        22        0    0.0000
    310 H         115.2574  132.6457  137.7031 H        22        0    0.0000
    311 H         114.5021  131.5214  135.2898 H        22        0    0.0000
    312 H         113.6878  131.1385  136.8057 H        22        0    0.0000
    313 H         114.5055  129.0427  136.9138 H        22        0    0.0000
    314 H         115.5928  129.6838  134.1156 H        22        0    0.0000
    315 H         114.0230  128.9918  134.5096 H        22        0    0.0000
    316 H         116.8463  128.7321  137.2934 H        22        0    0.0000
    317 H         117.2947  129.8932  136.0393 H        22        0    0.0000
    318 H         117.5560  131.2386  137.9720 H        22        0    0.0000
    319 H         115.9785  129.4395  139.3942 H        22        0    0.0000
    320 H         114.8490  130.7666  139.1676 H        22        0    0.0000
    321 C         117.9091  129.1931  143.0898 C.3      23        0    0.0000
    322 C         117.1648  129.2262  141.7527 C.3      23        0    0.0000
    323 C         116.4367  130.5807  141.6877 C.3      23        0    0.0000
    324 C         116.5801  131.3075  140.3448 C.3      23        0    0.0000
    325 C         117.0227  131.3857  142.8521 C.3      23        0    0.0000
    326 C         117.3315  130.3388  143.9279 C.3      23        0    0.0000
    327 C         116.0797  129.9321  144.7282 C.3      23        0    0.0000
    328 H         117.8373  128.2135  143.5719 H        23        0    0.0000
    329 H         118.9743  129.3836  142.9059 H        23        0    0.0000
    330 H         117.8706  129.0822  140.9272 H        23        0    0.0000
    331 H         116.4358  128.4091  141.7017 H        23        0    0.0000
    332 H         115.3705  130.4094  141.8937 H        23        0    0.0000
    333 H         116.1009  132.2915  140.4114 H        23        0    0.0000
    334 H         117.6374  131.4839  140.1158 H        23        0    0.0000
    335 H         116.3350  132.1631  143.2003 H        23        0    0.0000
    336 H         117.9535  131.8798  142.5447 H        23        0    0.0000
    337 H         118.0927  130.7304  144.6146 H        23        0    0.0000
    338 H         116.3268  129.1987  145.5038 H        23        0    0.0000
    339 H         115.3575  129.4536  144.0560 H        23        0    0.0000
    340 C         118.1125  133.4388  146.7421 C.3      24        0    0.0000
    341 C         117.6381  132.0609  146.3017 C.3      24        0    0.0000
    342 C         116.3131  132.3655  145.5951 C.3      24        0    0.0000
    343 C         115.3887  131.1624  145.3845 C.3      24        0    0.0000
    344 C         115.7002  133.5461  146.3735 C.3      24        0    0.0000
    345 C         116.8297  134.0890  147.2707 C.3      24        0    0.0000
    346 C         116.8788  135.6125  147.4214 C.3      24        0    0.0000
    347 H         118.8892  133.3773  147.5106 H        24        0    0.0000
    348 H         118.5253  133.9799  145.8836 H        24        0    0.0000
    349 H         118.3573  131.5748  145.6352 H        24        0    0.0000
    350 H         117.4996  131.4194  147.1789 H        24        0    0.0000
    351 H         116.5656  132.7446  144.5934 H        24        0    0.0000
    352 H         114.9716  130.8578  146.3517 H        24        0    0.0000
    353 H         114.5418  131.4665  144.7580 H        24        0    0.0000
    354 H         114.8490  133.2497  146.9958 H        24        0    0.0000
    355 H         115.3213  134.2928  145.6674 H        24        0    0.0000
    356 H         116.6569  133.6808  148.2779 H        24        0    0.0000
    357 H         115.8956  135.9718  147.7477 H        24        0    0.0000
    358 H         117.5884  135.8713  148.2162 H        24        0    0.0000
    359 C         118.5483  139.9222  145.9459 C.3      25        0    0.0000
    360 C         118.0111  138.6588  145.2911 C.3      25        0    0.0000
    361 C         118.1226  137.6196  146.4087 C.3      25        0    0.0000
    362 C         117.2835  136.3719  146.1223 C.3      25        0    0.0000
    363 C         117.7111  138.3962  147.6729 C.3      25        0    0.0000
    364 C         117.9315  139.8884  147.3500 C.3      25        0    0.0000
    365 C         118.6890  140.6879  148.4177 C.3      25        0    0.0000
    366 H         118.2600  140.8225  145.3943 H        25        0    0.0000
    367 H         119.6426  139.8829  145.9743 H        25        0    0.0000
    368 H         116.9671  138.8030  144.9874 H        25        0    0.0000
    369 H         118.5900  138.3782  144.4059 H        25        0    0.0000
    370 H         119.1800  137.3350  146.5099 H        25        0    0.0000
    371 H         116.3785  136.6440  145.5663 H        25        0    0.0000
    372 H         117.8545  135.6909  145.4800 H        25        0    0.0000
    373 H         116.6521  138.2351  147.9104 H        25        0    0.0000
    374 H         118.2857  138.0549  148.5404 H        25        0    0.0000
    375 H         116.9328  140.3435  147.2731 H        25        0    0.0000
    376 H         118.1202  140.6626  149.3548 H        25        0    0.0000
    377 H         118.7370  141.7387  148.1079 H        25        0    0.0000
    378 C         121.2741  140.8199  152.1670 C.3      26        0    0.0000
    379 C         120.1624  141.0187  151.1338 C.3      26        0    0.0000
    380 C         120.8426  141.0361  149.7532 C.3      26        0    0.0000
    381 C         120.1347  140.1835  148.6929 C.3      26        0    0.0000
    382 C         122.2727  140.5591  150.0259 C.3      26        0    0.0000
    383 C         122.5924  141.0817  151.4306 C.3      26        0    0.0000
    384 C         122.9988  142.5676  151.4262 C.3      26        0    0.0000
    385 H         121.1281  141.4509  153.0489 H        26        0    0.0000
    386 H         121.2548  139.7777  152.5105 H        26        0    0.0000
    387 H         119.4148  140.2236  151.2299 H        26        0    0.0000
    388 H         119.6468  141.9706  151.3066 H        26        0    0.0000
    389 H         120.8909  142.0780  149.4055 H        26        0    0.0000
    390 H         120.7021  140.2250  147.7555 H        26        0    0.0000
    391 H         120.1083  139.1323  149.0020 H        26        0    0.0000
    392 H         122.9765  140.9184  149.2681 H        26        0    0.0000
    393 H         122.3162  139.4622  150.0251 H        26        0    0.0000
    394 H         123.4003  140.4834  151.8707 H        26        0    0.0000
    395 H         122.5457  143.1043  152.2671 H        26        0    0.0000
    396 H         122.6303  143.0429  150.5093 H        26        0    0.0000
    397 C         124.5442  142.7439  151.4756 C.3      27        0    0.0000
    398 C         125.0074  143.9643  152.2839 C.3      27        0    0.0000
    399 H         124.9506  141.8440  151.9547 H        27        0    0.0000
    400 H         124.9464  142.7648  150.4559 H        27        0    0.0000
    401 H         124.6436  144.8984  151.8398 H        27        0    0.0000
    402 H         124.5620  143.8987  153.2849 H        27        0    0.0000
    403 C         128.3529  142.4208  149.5675 C.3      28        0    0.0000
    404 C         127.0926  143.0359  150.1565 C.3      28        0    0.0000
    405 C         127.3578  143.0190  151.6673 C.3      28        0    0.0000
    406 C         126.5605  144.0440  152.4838 C.3      28        0    0.0000
    407 C         128.8906  143.0970  151.8226 C.3      28        0    0.0000
    408 C         129.4673  143.0641  150.3954 C.3      28        0    0.0000
    409 C         130.7945  142.3139  150.2585 C.3      28        0    0.0000
    410 H         128.3409  141.3319  149.6982 H        28        0    0.0000
    411 H         128.4535  142.6368  148.4995 H        28        0    0.0000
    412 H         126.9668  144.0531  149.7704 H        28        0    0.0000
    413 H         126.1972  142.4645  149.8922 H        28        0    0.0000
    414 H         127.0554  142.0273  152.0354 H        28        0    0.0000
    415 H         126.7850  143.9032  153.5479 H        28        0    0.0000
    416 H         126.9004  145.0531  152.2221 H        28        0    0.0000
    417 H         129.2341  142.2360  152.4094 H        28        0    0.0000
    418 H         129.2234  143.9952  152.3534 H        28        0    0.0000
    419 H         129.5955  144.1014  150.0532 H        28        0    0.0000
    420 H         130.6148  141.2335  150.2074 H        28        0    0.0000
    421 H         131.2754  142.5976  149.3147 H        28        0    0.0000
    422 C         130.8373  145.9390  153.0159 C.3      29        0    0.0000
    423 C         130.8740  145.0146  151.8069 C.3      29        0    0.0000
    424 C         131.2645  143.6657  152.4198 C.3      29        0    0.0000
    425 C         131.7735  142.6155  151.4277 C.3      29        0    0.0000
    426 C         132.2246  144.0081  153.5758 C.3      29        0    0.0000
    427 C         132.0881  145.5269  153.7991 C.3      29        0    0.0000
    428 C         132.1300  145.9860  155.2598 C.3      29        0    0.0000
    429 H         130.8632  146.9937  152.7250 H        29        0    0.0000
    430 H         129.9182  145.7658  153.5863 H        29        0    0.0000
    431 H         129.9067  144.9700  151.2969 H        29        0    0.0000
    432 H         131.6206  145.3730  151.0896 H        29        0    0.0000
    433 H         130.3551  143.2482  152.8776 H        29        0    0.0000
    434 H         132.7293  142.9521  151.0090 H        29        0    0.0000
    435 H         131.9767  141.6824  151.9664 H        29        0    0.0000
    436 H         133.2681  143.7638  153.3492 H        29        0    0.0000
    437 H         131.9555  143.4217  154.4610 H        29        0    0.0000
    438 H         132.9474  145.9983  153.2987 H        29        0    0.0000
    439 H         132.2534  147.0751  155.2894 H        29        0    0.0000
    440 H         131.1656  145.7654  155.7327 H        29        0    0.0000
    441 C         136.1278  144.9769  153.6747 C.3      30        0    0.0000
    442 C         134.8237  145.6196  154.1220 C.3      30        0    0.0000
    443 C         134.3458  144.6857  155.2357 C.3      30        0    0.0000
    444 C         133.2634  145.3307  156.1049 C.3      30        0    0.0000
    445 C         135.6394  144.3181  155.9855 C.3      30        0    0.0000
    446 C         136.7944  144.5637  154.9930 C.3      30        0    0.0000
    447 C         137.8189  143.4275  154.8811 C.3      30        0    0.0000
    448 H         136.7502  145.6716  153.1020 H        30        0    0.0000
    449 H         135.9105  144.1156  153.0339 H        30        0    0.0000
    450 H         135.0104  146.6301  154.5055 H        30        0    0.0000
    451 H         134.1008  145.6917  153.3036 H        30        0    0.0000
    452 H         133.9470  143.7720  154.7714 H        30        0    0.0000
    453 H         132.8259  144.5851  156.7794 H        30        0    0.0000
    454 H         133.7190  146.1001  156.7395 H        30        0    0.0000
    455 H         135.7832  144.9572  156.8656 H        30        0    0.0000
    456 H         135.5963  143.2855  156.3474 H        30        0    0.0000
    457 H         137.3449  145.4414  155.3634 H        30        0    0.0000
    458 H         138.5426  143.6739  154.0951 H        30        0    0.0000
    459 H         137.3039  142.5147  154.5588 H        30        0    0.0000
    460 C         138.5846  144.6600  159.6620 C.3      31        0    0.0000
    461 C         138.4230  143.4424  158.7649 C.3      31        0    0.0000
    462 C         138.2295  144.0486  157.3692 C.3      31        0    0.0000
    463 C         138.5899  143.1255  156.1982 C.3      31        0    0.0000
    464 C         138.9683  145.4025  157.3963 C.3      31        0    0.0000
    465 C         139.4877  145.5775  158.8351 C.3      31        0    0.0000
    466 C         139.4729  147.0188  159.3503 C.3      31        0    0.0000
    467 H         137.6096  145.1269  159.8477 H        31        0    0.0000
    468 H         139.0302  144.4013  160.6274 H        31        0    0.0000
    469 H         139.3236  142.8217  158.8245 H        31        0    0.0000
    470 H         137.5704  142.8247  159.0642 H        31        0    0.0000
    471 H         137.1585  144.2778  157.2643 H        31        0    0.0000
    472 H         139.6657  143.2046  156.0010 H        31        0    0.0000
    473 H         138.3997  142.0859  156.4900 H        31        0    0.0000
    474 H         138.2629  146.1993  157.1295 H        31        0    0.0000
    475 H         139.7933  145.4562  156.6783 H        31        0    0.0000
    476 H         140.5132  145.1827  158.8800 H        31        0    0.0000
    477 H         140.1081  147.6523  158.7199 H        31        0    0.0000
    478 H         138.4552  147.4200  159.2751 H        31        0    0.0000
    479 C         139.9449  147.1291  160.8273 C.3      32        0    0.0000
    480 C         140.7245  148.4147  161.1387 C.3      32        0    0.0000
    481 H         139.0413  147.1196  161.4501 H        32        0    0.0000
    482 H         140.5218  146.2372  161.0984 H        32        0    0.0000
    483 H         141.3047  148.7495  160.2708 H        32        0    0.0000
    484 H         139.9987  149.2087  161.3563 H        32        0    0.0000
    485 C         144.1279  150.2737  164.2647 C.3      33        0    0.0000
    486 C         143.7866  149.6121  162.9304 C.3      33        0    0.0000
    487 C         142.2550  149.6603  162.7932 C.3      33        0    0.0000
    488 C         141.6625  148.3035  162.3903 C.3      33        0    0.0000
    489 C         141.7571  150.1830  164.1495 C.3      33        0    0.0000
    490 C         142.8896  151.0794  164.6662 C.3      33        0    0.0000
    491 C         142.9049  152.4921  164.0543 C.3      33        0    0.0000
    492 H         144.3080  149.4913  165.0129 H        33        0    0.0000
    493 H         145.0384  150.8781  164.2034 H        33        0    0.0000
    494 H         144.1859  148.5925  162.8965 H        33        0    0.0000
    495 H         144.2474  150.1660  162.1040 H        33        0    0.0000
    496 H         142.0091  150.4020  162.0201 H        33        0    0.0000
    497 H         141.1086  147.8656  163.2288 H        33        0    0.0000
    498 H         142.4772  147.6091  162.1520 H        33        0    0.0000
    499 H         140.8005  150.7071  164.0613 H        33        0    0.0000
    500 H         141.6117  149.3493  164.8489 H        33        0    0.0000
    501 H         142.8395  151.1596  165.7596 H        33        0    0.0000
    502 H         142.3836  152.5137  163.0912 H        33        0    0.0000
    503 H         143.9422  152.7880  163.8556 H        33        0    0.0000
    504 C         144.8444  154.5827  167.5730 C.3      34        0    0.0000
    505 C         144.4532  154.1702  166.1622 C.3      34        0    0.0000
    506 C         143.0244  153.6527  166.3402 C.3      34        0    0.0000
    507 C         142.2782  153.5483  165.0079 C.3      34        0    0.0000
    508 C         142.4030  154.6339  167.3511 C.3      34        0    0.0000
    509 C         143.5847  155.2771  168.1058 C.3      34        0    0.0000
    510 C         143.4507  155.3091  169.6336 C.3      34        0    0.0000
    511 H         145.7121  155.2499  167.5778 H        34        0    0.0000
    512 H         145.1034  153.6924  168.1562 H        34        0    0.0000
    513 H         144.4793  155.0380  165.4919 H        34        0    0.0000
    514 H         145.1232  153.4050  165.7585 H        34        0    0.0000
    515 H         143.0739  152.6602  166.8115 H        34        0    0.0000
    516 H         141.2252  153.2974  165.1827 H        34        0    0.0000
    517 H         142.2902  154.5245  164.5085 H        34        0    0.0000
    518 H         141.8341  155.4214  166.8414 H        34        0    0.0000
    519 H         141.7021  154.1146  168.0131 H        34        0    0.0000
    520 H         143.6329  156.3260  167.7773 H        34        0    0.0000
    521 H         142.8764  154.4344  169.9612 H        34        0    0.0000
    522 H         142.8686  156.1927  169.9212 H        34        0    0.0000
    523 C         144.8179  154.8918  174.1427 C.3      35        0    0.0000
    524 C         144.2183  154.6033  172.7640 C.3      35        0    0.0000
    525 C         144.6436  155.7659  171.8576 C.3      35        0    0.0000
    526 C         144.8061  155.3358  170.3970 C.3      35        0    0.0000
    527 C         145.9286  156.2725  172.5208 C.3      35        0    0.0000
    528 C         145.5805  156.2168  174.0119 C.3      35        0    0.0000
    529 C         146.7870  156.2892  174.9520 C.3      35        0    0.0000
    530 H         144.0403  154.9605  174.9110 H        35        0    0.0000
    531 H         145.4861  154.0709  174.4293 H        35        0    0.0000
    532 H         143.1271  154.5211  172.8114 H        35        0    0.0000
    533 H         144.6004  153.6447  172.3931 H        35        0    0.0000
    534 H         143.8786  156.5529  171.9282 H        35        0    0.0000
    535 H         145.2458  154.3319  170.3621 H        35        0    0.0000
    536 H         145.5035  156.0045  169.8790 H        35        0    0.0000
    537 H         146.1830  157.2870  172.1978 H        35        0    0.0000
    538 H         146.7756  155.6142  172.2902 H        35        0    0.0000
    539 H         144.8842  157.0368  174.2404 H        35        0    0.0000
    540 H         147.3611  155.3564  174.9063 H        35        0    0.0000
    541 H         146.4350  156.3935  175.9853 H        35        0    0.0000
    542 C         146.2229  160.5103  176.3749 C.3      36        0    0.0000
    543 C         146.0865  159.0953  175.8304 C.3      36        0    0.0000
    544 C         147.5385  158.6968  175.5467 C.3      36        0    0.0000
    545 C         147.7201  157.4872  174.6247 C.3      36        0    0.0000
    546 C         148.2325  159.9935  175.0860 C.3      36        0    0.0000
    547 C         147.2621  161.1375  175.4398 C.3      36        0    0.0000
    548 C         147.9167  162.4238  175.9528 C.3      36        0    0.0000
    549 H         145.2712  161.0502  176.3532 H        36        0    0.0000
    550 H         146.5707  160.4753  177.4132 H        36        0    0.0000
    551 H         145.6092  158.4241  176.5512 H        36        0    0.0000
    552 H         145.4767  159.1062  174.9203 H        36        0    0.0000
    553 H         147.9888  158.4236  176.5129 H        36        0    0.0000
    554 H         147.5442  157.7977  173.5879 H        36        0    0.0000
    555 H         148.7613  157.1479  174.6795 H        36        0    0.0000
    556 H         148.4379  160.0074  174.0102 H        36        0    0.0000
    557 H         149.2021  160.0876  175.5868 H        36        0    0.0000
    558 H         146.7357  161.4039  174.5108 H        36        0    0.0000
    559 H         148.4130  162.2165  176.9082 H        36        0    0.0000
    560 H         148.7007  162.7316  175.2508 H        36        0    0.0000
    561 C         148.8706  166.7714  176.2422 C.3      37        0    0.0000
    562 C         148.9206  165.2425  176.2958 C.3      37        0    0.0000
    563 C         147.5819  164.7793  176.8979 C.3      37        0    0.0000
    564 C         146.9271  163.6113  176.1500 C.3      37        0    0.0000
    565 C         146.7068  166.0368  176.8964 C.3      37        0    0.0000
    566 C         147.6893  167.1907  177.1240 C.3      37        0    0.0000
    567 C         148.0695  167.3545  178.6078 C.3      37        0    0.0000
    568 H         149.8235  167.2208  176.5376 H        37        0    0.0000
    569 H         148.6755  167.0824  175.2078 H        37        0    0.0000
    570 H         149.0992  164.8380  175.2935 H        37        0    0.0000
    571 H         149.7494  164.9100  176.9317 H        37        0    0.0000
    572 H         147.7567  164.4864  177.9430 H        37        0    0.0000
    573 H         146.0629  163.2527  176.7219 H        37        0    0.0000
    574 H         146.5482  163.9440  175.1768 H        37        0    0.0000
    575 H         145.9213  165.9908  177.6576 H        37        0    0.0000
    576 H         146.2171  166.1603  175.9217 H        37        0    0.0000
    577 H         147.2504  168.1260  176.7540 H        37        0    0.0000
    578 H         148.6122  166.4770  178.9765 H        37        0    0.0000
    579 H         147.1572  167.4409  179.2099 H        37        0    0.0000
    580 C         149.0720  169.6068  182.5037 C.3      38        0    0.0000
    581 C         148.8602  168.5449  181.4355 C.3      38        0    0.0000
    582 C         148.6254  169.3624  180.1589 C.3      38        0    0.0000
    583 C         148.9296  168.6293  178.8463 C.3      38        0    0.0000
    584 C         149.3846  170.6889  180.3676 C.3      38        0    0.0000
    585 C         149.9581  170.6335  181.7953 C.3      38        0    0.0000
    586 C         149.9832  171.9773  182.5278 C.3      38        0    0.0000
    587 H         148.1113  170.0479  182.7964 H        38        0    0.0000
    588 H         149.5482  169.1972  183.3997 H        38        0    0.0000
    589 H         149.7530  167.9144  181.3640 H        38        0    0.0000
    590 H         148.0099  167.8959  181.6675 H        38        0    0.0000
    591 H         147.5548  169.6147  180.1315 H        38        0    0.0000
    592 H         148.7734  169.3197  178.0088 H        38        0    0.0000
    593 H         149.9898  168.3501  178.8293 H        38        0    0.0000
    594 H         148.6819  171.5238  180.2544 H        38        0    0.0000
    595 H         150.1839  170.8461  179.6357 H        38        0    0.0000
    596 H         150.9786  170.2273  181.7396 H        38        0    0.0000
    597 H         149.0176  172.4852  182.4195 H        38        0    0.0000
    598 H         150.1281  171.8025  183.6006 H        38        0    0.0000
    599 C         154.4350  171.5610  183.2776 C.3      39        0    0.0000
    600 C         152.9238  171.6898  183.4091 C.3      39        0    0.0000
    601 C         152.5137  172.2922  182.0614 C.3      39        0    0.0000
    602 C         151.1143  172.9136  182.0175 C.3      39        0    0.0000
    603 C         153.6705  173.2315  181.6678 C.3      39        0    0.0000
    604 C         154.8345  172.8842  182.6165 C.3      39        0    0.0000
    605 C         156.2302  172.9091  181.9859 C.3      39        0    0.0000
    606 H         154.9197  171.4239  184.2492 H        39        0    0.0000
    607 H         154.6794  170.6966  182.6505 H        39        0    0.0000
    608 H         152.4453  170.7223  183.5899 H        39        0    0.0000
    609 H         152.6805  172.3517  184.2476 H        39        0    0.0000
    610 H         152.5129  171.4689  181.3311 H        39        0    0.0000
    611 H         151.1108  173.8304  182.6189 H        39        0    0.0000
    612 H         150.8867  173.2118  180.9873 H        39        0    0.0000
    613 H         153.4141  174.2910  181.7756 H        39        0    0.0000
    614 H         153.9218  173.0805  180.6125 H        39        0    0.0000
    615 H         154.8357  173.6487  183.4081 H        39        0    0.0000
    616 H         156.8744  172.1961  182.5140 H        39        0    0.0000
    617 H         156.1608  172.5622  180.9481 H        39        0    0.0000
    618 C         158.2157  173.2262  185.3038 C.3      40        0    0.0000
    619 C         157.0370  173.8248  184.5323 C.3      40        0    0.0000
    620 C         157.6346  174.5757  183.3289 C.3      40        0    0.0000
    621 C         156.9149  174.3088  182.0011 C.3      40        0    0.0000
    622 C         159.1021  174.1372  183.2954 C.3      40        0    0.0000
    623 C         159.4730  173.9183  184.7661 C.3      40        0    0.0000
    624 C         159.7957  175.2374  185.4933 C.3      40        0    0.0000
    625 H         158.0862  173.3242  186.3858 H        40        0    0.0000
    626 H         158.2738  172.1526  185.0828 H        40        0    0.0000
    627 H         156.3412  173.0319  184.2365 H        40        0    0.0000
    628 H         156.4805  174.5235  185.1678 H        40        0    0.0000
    629 H         157.6052  175.6532  183.5454 H        40        0    0.0000
    630 H         156.1455  175.0742  181.8448 H        40        0    0.0000
    631 H         157.6165  174.3877  181.1627 H        40        0    0.0000
    632 H         159.7401  174.8774  182.8017 H        40        0    0.0000
    633 H         159.2060  173.1918  182.7474 H        40        0    0.0000
    634 H         160.3367  173.2445  184.8315 H        40        0    0.0000
    635 H         158.9043  175.6504  185.9783 H        40        0    0.0000
    636 H         160.1349  175.9819  184.7632 H        40        0    0.0000
    637 C         164.6110  175.1483  186.1839 C.3      41        0    0.0000
    638 C         163.2669  175.6963  185.6982 C.3      41        0    0.0000
    639 C         162.2313  174.5784  185.9158 C.3      41        0    0.0000
    640 C         160.9196  175.0524  186.5537 C.3      41        0    0.0000
    641 C         162.9606  173.5451  186.7804 C.3      41        0    0.0000
    642 C         164.4246  173.6347  186.3361 C.3      41        0    0.0000
    643 C         164.6917  172.8577  185.0331 C.3      41        0    0.0000
    644 H         165.4304  175.4272  185.5147 H        41        0    0.0000
    645 H         164.8357  175.5835  187.1662 H        41        0    0.0000
    646 H         163.0198  176.6165  186.2389 H        41        0    0.0000
    647 H         163.3212  175.9510  184.6333 H        41        0    0.0000
    648 H         162.0132  174.1161  184.9425 H        41        0    0.0000
    649 H         160.5851  174.3113  187.2895 H        41        0    0.0000
    650 H         161.0754  175.9915  187.0970 H        41        0    0.0000
    651 H         162.5408  172.5410  186.6612 H        41        0    0.0000
    652 H         162.8836  173.8128  187.8422 H        41        0    0.0000
    653 H         165.0747  173.2485  187.1314 H        41        0    0.0000
    654 H         165.3544  173.4199  184.3659 H        41        0    0.0000
    655 H         163.7470  172.7128  184.4957 H        41        0    0.0000
    656 C         168.3321  169.8553  186.6438 C.3      42        0    0.0000
    657 C         167.7045  170.5851  185.4572 C.3      42        0    0.0000
    658 C         166.6585  171.5526  186.0376 C.3      42        0    0.0000
    659 C         165.3098  171.4571  185.3122 C.3      42        0    0.0000
    660 C         166.5912  171.2048  187.5327 C.3      42        0    0.0000
    661 C         167.9938  170.6908  187.8812 C.3      42        0    0.0000
    662 C         169.0317  171.8026  188.1201 C.3      42        0    0.0000
    663 H         167.8670  168.8657  186.7380 H        42        0    0.0000
    664 H         169.4063  169.6959  186.5075 H        42        0    0.0000
    665 H         167.2751  169.8665  184.7505 H        42        0    0.0000
    666 H         168.4691  171.1530  184.9141 H        42        0    0.0000
    667 H         167.0497  172.5744  185.9327 H        42        0    0.0000
    668 H         164.6055  170.8525  185.8954 H        42        0    0.0000
    669 H         165.4499  170.9430  184.3536 H        42        0    0.0000
    670 H         166.2845  172.0620  188.1400 H        42        0    0.0000
    671 H         165.8619  170.4025  187.7047 H        42        0    0.0000
    672 H         167.9498  170.0414  188.7648 H        42        0    0.0000
    673 H         168.7334  172.7364  187.6315 H        42        0    0.0000
    674 H         169.9878  171.5061  187.6718 H        42        0    0.0000
    675 C         169.2711  172.0624  189.6344 C.3      43        0    0.0000
    676 C         170.7442  171.9718  190.0577 C.3      43        0    0.0000
    677 H         168.9197  173.0815  189.8404 H        43        0    0.0000
    678 H         168.6431  171.3883  190.2286 H        43        0    0.0000
    679 H         171.4030  171.8621  189.1883 H        43        0    0.0000
    680 H         171.0181  172.9180  190.5416 H        43        0    0.0000
    681 C         174.5880  169.4825  190.8900 C.3      44        0    0.0000
    682 C         173.3195  169.9755  190.2078 C.3      44        0    0.0000
    683 C         172.5303  170.5993  191.3635 C.3      44        0    0.0000
    684 C         171.0407  170.8316  191.0925 C.3      44        0    0.0000
    685 C         172.8540  169.7279  192.5929 C.3      44        0    0.0000
    686 C         174.0587  168.8575  192.1850 C.3      44        0    0.0000
    687 C         175.1057  168.6248  193.2785 C.3      44        0    0.0000
    688 H         175.1279  168.7569  190.2739 H        44        0    0.0000
    689 H         175.2565  170.3285  191.0840 H        44        0    0.0000
    690 H         173.5358  170.7018  189.4183 H        44        0    0.0000
    691 H         172.7896  169.1296  189.7561 H        44        0    0.0000
    692 H         172.9715  171.5895  191.5531 H        44        0    0.0000
    693 H         170.5936  169.8994  190.7274 H        44        0    0.0000
    694 H         170.5381  171.0734  192.0365 H        44        0    0.0000
    695 H         172.0198  169.0827  192.8890 H        44        0    0.0000
    696 H         173.0662  170.3724  193.4527 H        44        0    0.0000
    697 H         173.6579  167.8673  191.9205 H        44        0    0.0000
    698 H         174.5945  168.3840  194.2182 H        44        0    0.0000
    699 H         175.7103  167.7488  193.0153 H        44        0    0.0000
    700 C         176.4597  173.3123  192.1180 C.3      45        0    0.0000
    701 C         176.0520  172.3667  193.2508 C.3      45        0    0.0000
    702 C         175.7497  171.0133  192.5942 C.3      45        0    0.0000
    703 C         176.0571  169.8347  193.5220 C.3      45        0    0.0000
    704 C         176.5888  171.0528  191.3126 C.3      45        0    0.0000
    705 C         176.3867  172.4910  190.8241 C.3      45        0    0.0000
    706 C         177.4038  172.9589  189.7795 C.3      45        0    0.0000
    707 H         175.7990  174.1845  192.0674 H        45        0    0.0000
    708 H         177.4751  173.6842  192.3005 H        45        0    0.0000
    709 H         175.1781  172.7444  193.7925 H        45        0    0.0000
    710 H         176.8730  172.2876  193.9735 H        45        0    0.0000
    711 H         174.6857  170.9974  192.3164 H        45        0    0.0000
    712 H         175.9509  170.1574  194.5646 H        45        0    0.0000
    713 H         177.0972  169.5122  193.3954 H        45        0    0.0000
    714 H         176.2460  170.3188  190.5765 H        45        0    0.0000
    715 H         177.6464  170.8564  191.5293 H        45        0    0.0000
    716 H         175.3694  172.5834  190.4167 H        45        0    0.0000
    717 H         178.3081  172.3408  189.8257 H        45        0    0.0000
    718 H         177.7113  173.9863  190.0085 H        45        0    0.0000
    719 C         174.5770  175.6882  187.0514 C.3      46        0    0.0000
    720 C         175.8584  175.2552  187.7473 C.3      46        0    0.0000
    721 C         175.5818  173.7964  188.1324 C.3      46        0    0.0000
    722 C         176.8278  172.9255  188.3373 C.3      46        0    0.0000
    723 C         174.5730  173.2736  187.0891 C.3      46        0    0.0000
    724 C         174.2286  174.4738  186.1882 C.3      46        0    0.0000
    725 C         172.7791  174.5110  185.6978 C.3      46        0    0.0000
    726 H         173.7917  175.8867  187.7909 H        46        0    0.0000
    727 H         174.7213  176.5933  186.4534 H        46        0    0.0000
    728 H         176.7008  175.3467  187.0531 H        46        0    0.0000
    729 H         176.0773  175.8748  188.6226 H        46        0    0.0000
    730 H         175.0541  173.8137  189.0977 H        46        0    0.0000
    731 H         176.5824  171.8878  188.0816 H        46        0    0.0000
    732 H         177.6078  173.2456  187.6364 H        46        0    0.0000
    733 H         173.6826  172.8999  187.6098 H        46        0    0.0000
    734 H         174.9637  172.4423  186.4929 H        46        0    0.0000
    735 H         174.9080  174.4597  185.3235 H        46        0    0.0000
    736 H         172.3351  173.5101  185.7537 H        46        0    0.0000
    737 H         172.1887  175.1545  186.3610 H        46        0    0.0000
    738 C         174.1665  178.5307  184.1219 C.3      47        0    0.0000
    739 C         173.5074  177.4015  184.9015 C.3      47        0    0.0000
    740 C         173.5814  176.2234  183.9247 C.3      47        0    0.0000
    741 C         172.6551  175.0458  184.2435 C.3      47        0    0.0000
    742 C         173.4079  176.8451  182.5251 C.3      47        0    0.0000
    743 C         173.5782  178.3649  182.7169 C.3      47        0    0.0000
    744 C         174.3319  179.0912  181.5986 C.3      47        0    0.0000
    745 H         173.9376  179.5114  184.5505 H        47        0    0.0000
    746 H         175.2544  178.4010  184.1312 H        47        0    0.0000
    747 H         174.0314  177.1918  185.8391 H        47        0    0.0000
    748 H         172.4737  177.6726  185.1427 H        47        0    0.0000
    749 H         174.6095  175.8338  183.9721 H        47        0    0.0000
    750 H         171.6164  175.3494  184.0672 H        47        0    0.0000
    751 H         172.8659  174.2253  183.5474 H        47        0    0.0000
    752 H         172.4255  176.6394  182.0866 H        47        0    0.0000
    753 H         174.1476  176.4169  181.8401 H        47        0    0.0000
    754 H         172.5658  178.7955  182.7422 H        47        0    0.0000
    755 H         174.6684  178.3564  180.8577 H        47        0    0.0000
    756 H         173.6409  179.7669  181.0808 H        47        0    0.0000
    757 C         174.6870  183.5388  181.4299 C.3      48        0    0.0000
    758 C         175.5718  182.3318  181.1577 C.3      48        0    0.0000
    759 C         175.2762  181.3973  182.3376 C.3      48        0    0.0000
    760 C         175.5641  179.9119  182.0849 C.3      48        0    0.0000
    761 C         173.8354  181.7264  182.7796 C.3      48        0    0.0000
    762 C         173.3767  182.9040  181.9002 C.3      48        0    0.0000
    763 C         172.4670  183.9132  182.6052 C.3      48        0    0.0000
    764 H         175.1286  184.1638  182.2157 H        48        0    0.0000
    765 H         174.5506  184.1564  180.5369 H        48        0    0.0000
    766 H         175.2952  181.8844  180.1969 H        48        0    0.0000
    767 H         176.6306  182.6045  181.1074 H        48        0    0.0000
    768 H         175.9354  181.7042  183.1633 H        48        0    0.0000
    769 H         176.3604  179.8263  181.3360 H        48        0    0.0000
    770 H         175.9498  179.4599  183.0065 H        48        0    0.0000
    771 H         173.8423  182.0031  183.8413 H        48        0    0.0000
    772 H         173.1505  180.8781  182.6778 H        48        0    0.0000
    773 H         172.8578  182.4941  181.0215 H        48        0    0.0000
    774 H         172.6425  183.8892  183.6873 H        48        0    0.0000
    775 H         172.7192  184.9256  182.2680 H        48        0    0.0000
    776 C         172.1000  181.1233  180.5728 C.3      49        0    0.0000
    777 C         170.6772  181.6342  180.8153 C.3      49        0    0.0000
    778 C         170.6380  182.1500  182.2580 C.3      49        0    0.0000
    779 C         170.9599  183.6548  182.3251 C.3      49        0    0.0000
    780 C         171.6686  181.2485  182.9495 C.3      49        0    0.0000
    781 C         172.8103  181.1304  181.9366 C.3      49        0    0.0000
    782 C         173.6968  179.9072  182.1973 C.3      49        0    0.0000
    783 H         172.0629  180.1235  180.1254 H        49        0    0.0000
    784 H         172.6285  181.7749  179.8676 H        49        0    0.0000
    785 H         169.9778  180.7949  180.7117 H        49        0    0.0000
    786 H         170.3827  182.3888  180.0788 H        49        0    0.0000
    787 H         169.6422  181.9795  182.6870 H        49        0    0.0000
    788 H         170.3766  184.1123  183.1334 H        49        0    0.0000
    789 H         170.6673  184.1653  181.4014 H        49        0    0.0000
    790 H         171.2222  180.2629  183.1359 H        49        0    0.0000
    791 H         172.0157  181.6378  183.9112 H        49        0    0.0000
    792 H         173.4264  182.0383  182.0013 H        49        0    0.0000
    793 H         173.1164  178.9843  182.0828 H        49        0    0.0000
    794 H         174.0549  179.9313  183.2332 H        49        0    0.0000
    795 C         174.9261  179.8701  181.2446 C.3      50        0    0.0000
    796 C         174.9999  181.0582  180.2748 C.3      50        0    0.0000
    797 H         175.8204  179.8934  181.8803 H        50        0    0.0000
    798 H         174.9484  178.9147  180.7073 H        50        0    0.0000
    799 H         175.5296  181.9068  180.7233 H        50        0    0.0000
    800 H         175.5870  180.7483  179.4008 H        50        0    0.0000
    801 C         170.5083  179.3518  179.5897 C.3      51        0    0.0000
    802 C         171.6138  180.0091  180.4017 C.3      51        0    0.0000
    803 C         172.6580  180.3891  179.3442 C.3      51        0    0.0000
    804 C         173.6042  181.5303  179.7383 C.3      51        0    0.0000
    805 C         171.8680  180.6058  178.0371 C.3      51        0    0.0000
    806 C         170.4038  180.2550  178.3590 C.3      51        0    0.0000
    807 C         169.6395  179.5849  177.2146 C.3      51        0    0.0000
    808 H         170.7985  178.3320  179.3088 H        51        0    0.0000
    809 H         169.5673  179.2995  180.1458 H        51        0    0.0000
    810 H         171.2140  180.8865  180.9215 H        51        0    0.0000
    811 H         172.0245  179.3312  181.1566 H        51        0    0.0000
    812 H         173.2908  179.5033  179.1849 H        51        0    0.0000
    813 H         173.7637  182.1770  178.8672 H        51        0    0.0000
    814 H         173.1206  182.1484  180.5039 H        51        0    0.0000
    815 H         172.2732  179.9442  177.2614 H        51        0    0.0000
    816 H         171.9450  181.6285  177.6532 H        51        0    0.0000
    817 H         169.8863  181.1796  178.6535 H        51        0    0.0000
    818 H         169.0709  178.7263  177.5912 H        51        0    0.0000
    819 H         168.9079  180.2914  176.8049 H        51        0    0.0000
    820 C         173.6570  179.5014  174.9993 C.3      52        0    0.0000
    821 C         172.8147  180.3093  175.9902 C.3      52        0    0.0000
    822 C         171.3760  180.2845  175.4625 C.3      52        0    0.0000
    823 C         170.5764  179.1148  176.0666 C.3      52        0    0.0000
    824 C         171.5914  180.1908  173.9466 C.3      52        0    0.0000
    825 C         172.7554  179.2093  173.7883 C.3      52        0    0.0000
    826 C         173.4526  179.3458  172.4300 C.3      52        0    0.0000
    827 H         174.5534  180.0697  174.7263 H        52        0    0.0000
    828 H         173.9939  178.5633  175.4551 H        52        0    0.0000
    829 H         173.1784  181.3446  176.0014 H        52        0    0.0000
    830 H         172.9065  179.9267  177.0118 H        52        0    0.0000
    831 H         170.8719  181.2269  175.7124 H        52        0    0.0000
    832 H         171.2745  178.3736  176.4742 H        52        0    0.0000
    833 H         169.9861  178.5998  175.3012 H        52        0    0.0000
    834 H         171.8713  181.1786  173.5577 H        52        0    0.0000
    835 H         170.7038  179.8623  173.3977 H        52        0    0.0000
    836 H         172.3631  178.1874  173.8873 H        52        0    0.0000
    837 H         173.2820  178.4497  171.8220 H        52        0    0.0000
    838 H         174.5354  179.4250  172.5829 H        52        0    0.0000
    839 C         172.9647  180.6022  171.6530 C.3      53        0    0.0000
    840 C         173.1825  180.5207  170.1353 C.3      53        0    0.0000
    841 H         173.5416  181.4544  172.0344 H        53        0    0.0000
    842 H         171.9142  180.8014  171.8951 H        53        0    0.0000
    843 H         174.2614  180.4406  169.9500 H        53        0    0.0000
    844 H         172.7244  179.6179  169.7145 H        53        0    0.0000
    845 C         174.0087  181.4515  165.8348 C.3      54        0    0.0000
    846 C         173.5266  180.8490  167.1456 C.3      54        0    0.0000
    847 C         173.5026  182.0538  168.0883 C.3      54        0    0.0000
    848 C         172.6811  181.7825  169.3510 C.3      54        0    0.0000
    849 C         172.9693  183.1979  167.2066 C.3      54        0    0.0000
    850 C         173.2447  182.7787  165.7478 C.3      54        0    0.0000
    851 C         173.8949  183.8524  164.8661 C.3      54        0    0.0000
    852 H         173.7942  180.7996  164.9822 H        54        0    0.0000
    853 H         175.0930  181.6010  165.8776 H        54        0    0.0000
    854 H         172.5233  180.4234  167.0215 H        54        0    0.0000
    855 H         174.1928  180.0575  167.5022 H        54        0    0.0000
    856 H         174.5389  182.2918  168.3693 H        54        0    0.0000
    857 H         172.7084  182.6547  170.0148 H        54        0    0.0000
    858 H         171.6310  181.6305  169.0743 H        54        0    0.0000
    859 H         171.8888  183.3321  167.3414 H        54        0    0.0000
    860 H         173.4428  184.1475  167.4774 H        54        0    0.0000
    861 H         172.2666  182.5572  165.2953 H        54        0    0.0000
    862 H         174.5847  184.4475  165.4761 H        54        0    0.0000
    863 H         173.1176  184.5393  164.5105 H        54        0    0.0000
    864 C         172.9214  179.9302  163.6508 C.3      55        0    0.0000
    865 C         173.6460  181.0371  164.4014 C.3      55        0    0.0000
    866 C         174.3306  181.8376  163.2863 C.3      55        0    0.0000
    867 C         174.6657  183.2932  163.6358 C.3      55        0    0.0000
    868 C         173.4520  181.6431  162.0334 C.3      55        0    0.0000
    869 C         172.3374  180.6621  162.4407 C.3      55        0    0.0000
    870 C         171.9006  179.6955  161.3372 C.3      55        0    0.0000
    871 H         173.6317  179.1546  163.3395 H        55        0    0.0000
    872 H         172.1464  179.4593  164.2633 H        55        0    0.0000
    873 H         172.9189  181.6399  164.9561 H        55        0    0.0000
    874 H         174.3680  180.6381  165.1207 H        55        0    0.0000
    875 H         175.2898  181.3410  163.0770 H        55        0    0.0000
    876 H         175.7419  183.3738  163.8298 H        55        0    0.0000
    877 H         174.4549  183.9278  162.7669 H        55        0    0.0000
    878 H         174.0688  181.2297  161.2257 H        55        0    0.0000
    879 H         173.0251  182.5793  161.6586 H        55        0    0.0000
    880 H         171.4707  181.2487  162.7785 H        55        0    0.0000
    881 H         171.1817  178.9687  161.7337 H        55        0    0.0000
    882 H         171.3808  180.2550  160.5503 H        55        0    0.0000
    883 C         173.0986  178.9359  160.7011 C.3      56        0    0.0000
    884 C         172.6895  177.8933  159.6509 C.3      56        0    0.0000
    885 H         173.6119  178.4129  161.5182 H        56        0    0.0000
    886 H         173.8161  179.6558  160.2901 H        56        0    0.0000
    887 H         172.0605  177.1414  160.1446 H        56        0    0.0000
    888 H         172.0779  178.3428  158.8598 H        56        0    0.0000
    889 C         173.1549  178.1382  155.5206 C.3      57        0    0.0000
    890 C         172.5809  177.6918  156.8675 C.3      57        0    0.0000
    891 C         173.6525  176.8087  157.5316 C.3      57        0    0.0000
    892 C         173.8975  177.1242  159.0124 C.3      57        0    0.0000
    893 C         174.9053  177.0191  156.6752 C.3      57        0    0.0000
    894 C         174.3699  177.2422  155.2568 C.3      57        0    0.0000
    895 C         174.0066  175.9217  154.5515 C.3      57        0    0.0000
    896 H         172.4026  178.1071  154.7268 H        57        0    0.0000
    897 H         173.4885  179.1804  155.6068 H        57        0    0.0000
    898 H         172.3168  178.5672  157.4711 H        57        0    0.0000
    899 H         171.6622  177.1127  156.7176 H        57        0    0.0000
    900 H         173.3438  175.7583  157.4324 H        57        0    0.0000
    901 H         174.0444  176.1878  159.5637 H        57        0    0.0000
    902 H         174.8157  177.7107  159.1321 H        57        0    0.0000
    903 H         175.5943  176.1709  156.7412 H        57        0    0.0000
    904 H         175.4484  177.9139  157.0061 H        57        0    0.0000
    905 H         175.1184  177.7803  154.6614 H        57        0    0.0000
    906 H         173.1507  176.0539  153.8804 H        57        0    0.0000
    907 H         173.7116  175.1779  155.3013 H        57        0    0.0000
    908 C         175.2082  175.3473  153.7464 C.3      58        0    0.0000
    909 C         176.0787  174.3637  154.5414 C.3      58        0    0.0000
    910 H         174.7862  174.8107  152.8871 H        58        0    0.0000
    911 H         175.8069  176.1703  153.3387 H        58        0    0.0000
    912 H         175.4655  173.7017  155.1641 H        58        0    0.0000
    913 H         176.6067  173.7209  153.8255 H        58        0    0.0000
    914 C         176.6395  177.9158  153.9081 C.3      59        0    0.0000
    915 C         177.2665  176.6073  153.4195 C.3      59        0    0.0000
    916 C         178.0446  176.0260  154.6051 C.3      59        0    0.0000
    917 C         177.1754  175.0536  155.4246 C.3      59        0    0.0000
    918 C         178.4687  177.2911  155.3621 C.3      59        0    0.0000
    919 C         177.2420  178.2042  155.2933 C.3      59        0    0.0000
    920 C         177.5958  179.6755  155.5380 C.3      59        0    0.0000
    921 H         176.8444  178.7159  153.1878 H        59        0    0.0000
    922 H         175.5505  177.8172  153.9824 H        59        0    0.0000
    923 H         177.9650  176.8330  152.6038 H        59        0    0.0000
    924 H         176.5159  175.9196  153.0169 H        59        0    0.0000
    925 H         178.9314  175.4911  154.2417 H        59        0    0.0000
    926 H         176.6727  175.6078  156.2264 H        59        0    0.0000
    927 H         177.7878  174.2871  155.9114 H        59        0    0.0000
    928 H         179.3184  177.7560  154.8453 H        59        0    0.0000
    929 H         178.7777  177.1008  156.3943 H        59        0    0.0000
    930 H         176.5233  177.8777  156.0580 H        59        0    0.0000
    931 H         177.5921  179.8950  156.6120 H        59        0    0.0000
    932 H         176.8317  180.3147  155.0801 H        59        0    0.0000
    933 C         179.8192  177.3767  152.3806 C.3      60        0    0.0000
    934 C         178.8244  178.0071  153.3432 C.3      60        0    0.0000
    935 C         179.7041  178.8804  154.2468 C.3      60        0    0.0000
    936 C         178.9821  180.0449  154.9364 C.3      60        0    0.0000
    937 C         180.9237  179.2733  153.3877 C.3      60        0    0.0000
    938 C         180.7551  178.5396  152.0447 C.3      60        0    0.0000
    939 C         182.0625  178.0626  151.4073 C.3      60        0    0.0000
    940 H         180.3619  176.5618  152.8750 H        60        0    0.0000
    941 H         179.3276  176.9709  151.4911 H        60        0    0.0000
    942 H         178.0948  178.5990  152.7801 H        60        0    0.0000
    943 H         178.2741  177.2526  153.9141 H        60        0    0.0000
    944 H         180.0827  178.2315  155.0506 H        60        0    0.0000
    945 H         179.6203  180.4340  155.7387 H        60        0    0.0000
    946 H         178.8501  180.8613  154.2165 H        60        0    0.0000
    947 H         181.8394  178.9553  153.9015 H        60        0    0.0000
    948 H         181.0078  180.3537  153.2300 H        60        0    0.0000
    949 H         180.2324  179.2125  151.3494 H        60        0    0.0000
    950 H         182.5708  178.9000  150.9149 H        60        0    0.0000
    951 H         182.7380  177.7024  152.1924 H        60        0    0.0000
    952 C         180.4246  178.7525  147.3995 C.3      61        0    0.0000
    953 C         180.9059  178.7333  148.8526 C.3      61        0    0.0000
    954 C         180.7860  177.2790  149.3268 C.3      61        0    0.0000
    955 C         181.8414  176.9202  150.3765 C.3      61        0    0.0000
    956 C         180.8838  176.4787  148.0237 C.3      61        0    0.0000
    957 C         180.0340  177.3091  147.0560 C.3      61        0    0.0000
    958 C         180.2513  176.9838  145.5757 C.3      61        0    0.0000
    959 H         179.5750  179.4312  147.2682 H        61        0    0.0000
    960 H         181.2324  179.1144  146.7522 H        61        0    0.0000
    961 H         180.3079  179.4018  149.4812 H        61        0    0.0000
    962 H         181.9432  179.0861  148.8983 H        61        0    0.0000
    963 H         179.7808  177.1384  149.7502 H        61        0    0.0000
    964 H         182.7946  176.7133  149.8755 H        61        0    0.0000
    965 H         181.5561  176.0026  150.9044 H        61        0    0.0000
    966 H         180.4964  175.4614  148.1385 H        61        0    0.0000
    967 H         181.9233  176.4154  147.6785 H        61        0    0.0000
    968 H         178.9736  177.1707  147.3131 H        61        0    0.0000
    969 H         181.3109  176.7791  145.3829 H        61        0    0.0000
    970 H         179.9828  177.8576  144.9699 H        61        0    0.0000
    971 C         179.3971  175.7749  145.1046 C.3      62        0    0.0000
    972 C         179.4879  175.4964  143.5975 C.3      62        0    0.0000
    973 H         179.7753  174.8930  145.6373 H        62        0    0.0000
    974 H         178.3569  175.9111  145.4231 H        62        0    0.0000
    975 H         179.9797  176.3210  143.0683 H        62        0    0.0000
    976 H         180.1187  174.6101  143.4525 H        62        0    0.0000
    977 C         178.7803  172.9006  140.1293 C.3      63        0    0.0000
    978 C         177.7090  173.5420  141.0098 C.3      63        0    0.0000
    979 C         178.2431  174.9264  141.4165 C.3      63        0    0.0000
    980 C         178.1072  175.1845  142.9229 C.3      63        0    0.0000
    981 C         179.6917  174.9523  140.9050 C.3      63        0    0.0000
    982 C         179.6898  174.0430  139.6696 C.3      63        0    0.0000
    983 C         179.1579  174.7166  138.3914 C.3      63        0    0.0000
    984 H         179.3637  172.1965  140.7364 H        63        0    0.0000
    985 H         178.3461  172.3309  139.3017 H        63        0    0.0000
    986 H         177.4873  172.9009  141.8700 H        63        0    0.0000
    987 H         176.7757  173.6590  140.4465 H        63        0    0.0000
    988 H         177.6648  175.6846  140.8698 H        63        0    0.0000
    989 H         177.6415  174.3235  143.4163 H        63        0    0.0000
    990 H         177.4413  176.0406  143.0849 H        63        0    0.0000
    991 H         180.0325  175.9696  140.6892 H        63        0    0.0000
    992 H         180.3695  174.5318  141.6592 H        63        0    0.0000
    993 H         180.7003  173.6582  139.4818 H        63        0    0.0000
    994 H         178.5111  175.5676  138.6304 H        63        0    0.0000
    995 H         178.5404  174.0002  137.8362 H        63        0    0.0000
    996 C         180.2136  177.1128  134.2154 C.3      64        0    0.0000
    997 C         179.9865  177.0266  135.7269 C.3      64        0    0.0000
    998 C         179.8106  175.5374  136.0517 C.3      64        0    0.0000
    999 C         180.3084  175.1853  137.4563 C.3      64        0    0.0000
   1000 C         180.5648  174.8413  134.9139 C.3      64        0    0.0000
   1001 C         180.1654  175.6721  133.6898 C.3      64        0    0.0000
   1002 C         181.0585  175.4701  132.4626 C.3      64        0    0.0000
   1003 H         179.4519  177.7332  133.7310 H        64        0    0.0000
   1004 H         181.1861  177.5795  134.0184 H        64        0    0.0000
   1005 H         179.1061  177.6019  136.0328 H        64        0    0.0000
   1006 H         180.8507  177.4522  136.2508 H        64        0    0.0000
   1007 H         178.7421  175.2919  135.9660 H        64        0    0.0000
   1008 H         180.7841  176.0665  137.9032 H        64        0    0.0000
   1009 H         181.0763  174.4046  137.4030 H        64        0    0.0000
   1010 H         180.2705  173.7922  134.8098 H        64        0    0.0000
   1011 H         181.6488  174.8811  135.0790 H        64        0    0.0000
   1012 H         179.1228  175.4365  133.4310 H        64        0    0.0000
   1013 H         182.0756  175.2028  132.7723 H        64        0    0.0000
   1014 H         181.1342  176.4146  131.9106 H        64        0    0.0000
   1015 C         180.5069  174.3801  131.5032 C.3      65        0    0.0000
   1016 C         180.9881  174.5245  130.0523 C.3      65        0    0.0000
   1017 H         179.4135  174.4757  131.5104 H        65        0    0.0000
   1018 H         180.7371  173.3855  131.9027 H        65        0    0.0000
   1019 H         180.8074  175.5596  129.7352 H        65        0    0.0000
   1020 H         182.0684  174.3560  129.9717 H        65        0    0.0000
   1021 C         182.8952  173.1433  126.4919 C.3      66        0    0.0000
   1022 C         182.2926  174.0658  127.5543 C.3      66        0    0.0000
   1023 C         180.7883  173.7452  127.6135 C.3      66        0    0.0000
   1024 C         180.2320  173.6010  129.0354 C.3      66        0    0.0000
   1025 C         180.6395  172.4584  126.7955 C.3      66        0    0.0000
   1026 C         181.7120  172.5675  125.7063 C.3      66        0    0.0000
   1027 C         181.2697  173.4640  124.5341 C.3      66        0    0.0000
   1028 H         183.6278  173.6643  125.8681 H        66        0    0.0000
   1029 H         183.4256  172.3245  126.9948 H        66        0    0.0000
   1030 H         182.7985  173.9129  128.5139 H        66        0    0.0000
   1031 H         182.4386  175.1158  127.2749 H        66        0    0.0000
   1032 H         180.2443  174.5458  127.0922 H        66        0    0.0000
   1033 H         179.1702  173.8750  129.0394 H        66        0    0.0000
   1034 H         180.2921  172.5578  129.3661 H        66        0    0.0000
   1035 H         179.6296  172.3459  126.3881 H        66        0    0.0000
   1036 H         180.8435  171.5811  127.4231 H        66        0    0.0000
   1037 H         181.9560  171.5665  125.3286 H        66        0    0.0000
   1038 H         181.0039  174.4682  124.8824 H        66        0    0.0000
   1039 H         180.3715  173.0396  124.0701 H        66        0    0.0000
   1040 C         185.0993  171.1152  123.4464 C.3      67        0    0.0000
   1041 C         183.8205  171.5882  124.1360 C.3      67        0    0.0000
   1042 C         182.9298  172.2006  123.0412 C.3      67        0    0.0000
   1043 C         182.3732  173.5731  123.4422 C.3      67        0    0.0000
   1044 C         183.8153  172.2266  121.7858 C.3      67        0    0.0000
   1045 C         184.7712  171.0386  121.9531 C.3      67        0    0.0000
   1046 C         184.1592  169.6782  121.5724 C.3      67        0    0.0000
   1047 H         185.8860  171.8639  123.6055 H        67        0    0.0000
   1048 H         185.4645  170.1699  123.8600 H        67        0    0.0000
   1049 H         184.0583  172.2958  124.9378 H        67        0    0.0000
   1050 H         183.3033  170.7393  124.5986 H        67        0    0.0000
   1051 H         182.0914  171.5121  122.8645 H        67        0    0.0000
   1052 H         181.9733  174.0933  122.5641 H        67        0    0.0000
   1053 H         183.1880  174.1938  123.8340 H        67        0    0.0000
   1054 H         183.2246  172.1765  120.8659 H        67        0    0.0000
   1055 H         184.3996  173.1553  121.7510 H        67        0    0.0000
   1056 H         185.6836  171.2018  121.3654 H        67        0    0.0000
   1057 H         183.4501  169.3345  122.3331 H        67        0    0.0000
   1058 H         184.9554  168.9254  121.5236 H        67        0    0.0000
   1059 C         183.4541  169.7222  120.1872 C.3      68        0    0.0000
   1060 C         184.0409  168.7464  119.1572 C.3      68        0    0.0000
   1061 H         182.4050  169.4478  120.3569 H        68        0    0.0000
   1062 H         183.4515  170.7502  119.8065 H        68        0    0.0000
   1063 H         185.0123  168.3575  119.4844 H        68        0    0.0000
   1064 H         183.3665  167.8837  119.0827 H        68        0    0.0000
   1065 C         183.2264  172.4206  118.3702 C.3      69        0    0.0000
   1066 C         182.5006  171.0804  118.5162 C.3      69        0    0.0000
   1067 C         182.9514  170.2088  117.3389 C.3      69        0    0.0000
   1068 C         184.1706  169.3454  117.7139 C.3      69        0    0.0000
   1069 C         183.2245  171.2551  116.2508 C.3      69        0    0.0000
   1070 C         183.9103  172.4049  116.9930 C.3      69        0    0.0000
   1071 C         183.8228  173.7289  116.2254 C.3      69        0    0.0000
   1072 H         182.5090  173.2428  118.4718 H        69        0    0.0000
   1073 H         183.9739  172.5424  119.1624 H        69        0    0.0000
   1074 H         181.4194  171.2544  118.4448 H        69        0    0.0000
   1075 H         182.6868  170.6188  119.4913 H        69        0    0.0000
   1076 H         182.1304  169.5498  117.0283 H        69        0    0.0000
   1077 H         185.0751  169.9646  117.6786 H        69        0    0.0000
   1078 H         184.3194  168.5339  116.9936 H        69        0    0.0000
   1079 H         182.2710  171.5929  115.8241 H        69        0    0.0000
   1080 H         183.8374  170.8794  115.4260 H        69        0    0.0000
   1081 H         184.9684  172.1437  117.1350 H        69        0    0.0000
   1082 H         184.6888  174.3606  116.4548 H        69        0    0.0000
   1083 H         182.9323  174.2799  116.5503 H        69        0    0.0000
   1084 C         185.0282  169.9792  114.0841 C.3      70        0    0.0000
   1085 C         184.8905  171.2016  114.9808 C.3      70        0    0.0000
   1086 C         183.8219  172.0330  114.2635 C.3      70        0    0.0000
   1087 C         183.7367  173.5021  114.6887 C.3      70        0    0.0000
   1088 C         184.0594  171.7891  112.7603 C.3      70        0    0.0000
   1089 C         185.0177  170.5849  112.6767 C.3      70        0    0.0000
   1090 C         184.7405  169.5982  111.5384 C.3      70        0    0.0000
   1091 H         185.9501  169.4254  114.2866 H        70        0    0.0000
   1092 H         184.1820  169.3029  114.2480 H        70        0    0.0000
   1093 H         184.5875  170.9311  115.9971 H        70        0    0.0000
   1094 H         185.8501  171.7268  115.0404 H        70        0    0.0000
   1095 H         182.8488  171.5804  114.5071 H        70        0    0.0000
   1096 H         184.5451  174.0625  114.2042 H        70        0    0.0000
   1097 H         182.7949  173.9273  114.3222 H        70        0    0.0000
   1098 H         184.5092  172.6506  112.2551 H        70        0    0.0000
   1099 H         183.1007  171.6055  112.2634 H        70        0    0.0000
   1100 H         186.0237  170.9936  112.4979 H        70        0    0.0000
   1101 H         185.0733  168.5986  111.8421 H        70        0    0.0000
   1102 H         183.6582  169.5338  111.3754 H        70        0    0.0000
   1103 C         185.4288  169.9666  110.1898 C.3      71        0    0.0000
   1104 C         185.4961  168.8064  109.1864 C.3      71        0    0.0000
   1105 H         186.4561  170.2686  110.4305 H        71        0    0.0000
   1106 H         184.9384  170.8442  109.7525 H        71        0    0.0000
   1107 H         185.8860  167.9247  109.7110 H        71        0    0.0000
   1108 H         184.4984  168.5374  108.8201 H        71        0    0.0000
   1109 C         186.4517  169.0695  107.9714 C.3      72        0    0.0000
   1110 C         186.5852  167.8774  107.0130 C.3      72        0    0.0000
   1111 H         187.4438  169.2832  108.3892 H        72        0    0.0000
   1112 H         186.1337  169.9745  107.4405 H        72        0    0.0000
   1113 H         185.6279  167.3406  107.0020 H        72        0    0.0000
   1114 H         186.7694  168.2107  105.9850 H        72        0    0.0000
   1115 C         189.2481  165.5896  104.2409 C.3      73        0    0.0000
   1116 C         188.2667  166.5021  104.9811 C.3      73        0    0.0000
   1117 C         187.9827  165.8259  106.3288 C.3      73        0    0.0000
   1118 C         187.6814  166.8392  107.4364 C.3      73        0    0.0000
   1119 C         189.2366  164.9771  106.5637 C.3      73        0    0.0000
   1120 C         189.5160  164.3999  105.1720 C.3      73        0    0.0000
   1121 C         190.9233  163.8244  104.9907 C.3      73        0    0.0000
   1122 H         188.8372  165.2536  103.2827 H        73        0    0.0000
   1123 H         190.1688  166.1440  104.0230 H        73        0    0.0000
   1124 H         187.3428  166.6432  104.4100 H        73        0    0.0000
   1125 H         188.7195  167.4917  105.1163 H        73        0    0.0000
   1126 H         187.1226  165.1527  106.1997 H        73        0    0.0000
   1127 H         188.5991  167.3842  107.6879 H        73        0    0.0000
   1128 H         187.3611  166.3219  108.3483 H        73        0    0.0000
   1129 H         189.0652  164.1908  107.3057 H        73        0    0.0000
   1130 H         190.0733  165.5987  106.9064 H        73        0    0.0000
   1131 H         188.7683  163.6223  104.9582 H        73        0    0.0000
   1132 H         191.1541  163.1220  105.8002 H        73        0    0.0000
   1133 H         191.6577  164.6360  105.0576 H        73        0    0.0000
   1134 C         194.3886  161.3986  102.7943 C.3      74        0    0.0000
   1135 C         193.6031  162.6541  103.1466 C.3      74        0    0.0000
   1136 C         192.2445  162.0960  103.5830 C.3      74        0    0.0000
   1137 C         191.0983  163.1114  103.6218 C.3      74        0    0.0000
   1138 C         192.0081  160.8608  102.6920 C.3      74        0    0.0000
   1139 C         193.3640  160.5593  102.0241 C.3      74        0    0.0000
   1140 C         193.7102  159.0748  101.8733 C.3      74        0    0.0000
   1141 H         195.2722  161.6254  102.1898 H        74        0    0.0000
   1142 H         194.7224  160.9015  103.7118 H        74        0    0.0000
   1143 H         194.0864  163.2289  103.9426 H        74        0    0.0000
   1144 H         193.5199  163.2982  102.2643 H        74        0    0.0000
   1145 H         192.3678  161.7245  104.6115 H        74        0    0.0000
   1146 H         191.2660  163.8702  102.8483 H        74        0    0.0000
   1147 H         190.1607  162.6034  103.3669 H        74        0    0.0000
   1148 H         191.2498  161.0315  101.9202 H        74        0    0.0000
   1149 H         191.6421  160.0310  103.3062 H        74        0    0.0000
   1150 H         193.3135  160.9733  101.0057 H        74        0    0.0000
   1151 H         194.5853  158.9758  101.2202 H        74        0    0.0000
   1152 H         194.0002  158.6733  102.8515 H        74        0    0.0000
   1153 C         192.5543  158.2030  101.2970 C.3      75        0    0.0000
   1154 C         192.7977  156.6912  101.4092 C.3      75        0    0.0000
   1155 H         191.6545  158.4468  101.8763 H        75        0    0.0000
   1156 H         192.3499  158.4984  100.2613 H        75        0    0.0000
   1157 H         193.6226  156.3709  100.7619 H        75        0    0.0000
   1158 H         193.1040  156.4712  102.4399 H        75        0    0.0000
   1159 C         193.4393  152.7113  100.7077 C.3      76        0    0.0000
   1160 C         193.2459  153.9778  101.5404 C.3      76        0    0.0000
   1161 C         191.7526  154.3381  101.4548 C.3      76        0    0.0000
   1162 C         191.5282  155.8181  101.1181 C.3      76        0    0.0000
   1163 C         191.1745  153.3651  100.4158 C.3      76        0    0.0000
   1164 C         192.0445  152.1066  100.5274 C.3      76        0    0.0000
   1165 C         191.6680  151.1814  101.6989 C.3      76        0    0.0000
   1166 H         193.8417  152.9905   99.7255 H        76        0    0.0000
   1167 H         194.1555  152.0225  101.1665 H        76        0    0.0000
   1168 H         193.8993  154.7780  101.1759 H        76        0    0.0000
   1169 H         193.5194  153.7896  102.5853 H        76        0    0.0000
   1170 H         191.2968  154.1199  102.4310 H        76        0    0.0000
   1171 H         190.6732  156.2113  101.6803 H        76        0    0.0000
   1172 H         191.2785  155.9136  100.0546 H        76        0    0.0000
   1173 H         190.1112  153.1686  100.5845 H        76        0    0.0000
   1174 H         191.2752  153.7826   99.4055 H        76        0    0.0000
   1175 H         192.0072  151.5367   99.5902 H        76        0    0.0000
   1176 H         191.1314  151.7289  102.4812 H        76        0    0.0000
   1177 H         192.5838  150.7928  102.1606 H        76        0    0.0000
   1178 C         189.9576  151.2379   97.8529 C.3      77        0    0.0000
   1179 C         190.2213  151.5928   99.3182 C.3      77        0    0.0000
   1180 C         189.8031  150.3672  100.1501 C.3      77        0    0.0000
   1181 C         190.8126  149.9689  101.2338 C.3      77        0    0.0000
   1182 C         189.5901  149.2578   99.1152 C.3      77        0    0.0000
   1183 C         189.0736  149.9861   97.8697 C.3      77        0    0.0000
   1184 C         187.5697  150.3081   97.9587 C.3      77        0    0.0000
   1185 H         189.5234  152.0777   97.3021 H        77        0    0.0000
   1186 H         190.9135  150.9967   97.3703 H        77        0    0.0000
   1187 H         191.2747  151.8609   99.4552 H        77        0    0.0000
   1188 H         189.6245  152.4639   99.6131 H        77        0    0.0000
   1189 H         188.8340  150.5847  100.6216 H        77        0    0.0000
   1190 H         190.2748  149.5691  102.1018 H        77        0    0.0000
   1191 H         191.4687  149.1695  100.8708 H        77        0    0.0000
   1192 H         188.8992  148.4885   99.4751 H        77        0    0.0000
   1193 H         190.5428  148.7649   98.8820 H        77        0    0.0000
   1194 H         189.2637  149.3730   96.9796 H        77        0    0.0000
   1195 H         187.2988  151.1236   97.2791 H        77        0    0.0000
   1196 H         187.3294  150.6461   98.9738 H        77        0    0.0000
   1197 C         187.2811  145.3456   98.0848 C.3      78        0    0.0000
   1198 C         186.6878  146.6508   98.5929 C.3      78        0    0.0000
   1199 C         187.4251  147.7210   97.7780 C.3      78        0    0.0000
   1200 C         186.6926  149.0620   97.6431 C.3      78        0    0.0000
   1201 C         187.8107  147.0407   96.4483 C.3      78        0    0.0000
   1202 C         187.3645  145.5724   96.5739 C.3      78        0    0.0000
   1203 C         188.2878  144.5619   95.8888 C.3      78        0    0.0000
   1204 H         188.2767  145.1874   98.5169 H        78        0    0.0000
   1205 H         186.6558  144.4846   98.3401 H        78        0    0.0000
   1206 H         185.6086  146.6597   98.4059 H        78        0    0.0000
   1207 H         186.8420  146.7780   99.6690 H        78        0    0.0000
   1208 H         188.3667  147.9344   98.3056 H        78        0    0.0000
   1209 H         186.3060  149.1548   96.6212 H        78        0    0.0000
   1210 H         185.8219  149.0632   98.3095 H        78        0    0.0000
   1211 H         188.8967  147.1151   96.3112 H        78        0    0.0000
   1212 H         187.3481  147.5119   95.5747 H        78        0    0.0000
   1213 H         186.3510  145.4850   96.1561 H        78        0    0.0000
   1214 H         189.2890  144.9903   95.7611 H        78        0    0.0000
   1215 H         188.4021  143.6814   96.5322 H        78        0    0.0000
   1216 C         184.9263  141.5785   94.1663 C.3      79        0    0.0000
   1217 C         186.3644  141.9128   94.5372 C.3      79        0    0.0000
   1218 C         186.3649  143.4449   94.5568 C.3      79        0    0.0000
   1219 C         187.7473  144.1025   94.5056 C.3      79        0    0.0000
   1220 C         185.3874  143.8652   93.4418 C.3      79        0    0.0000
   1221 C         184.6164  142.5877   93.0558 C.3      79        0    0.0000
   1222 C         183.1301  142.7831   92.7410 C.3      79        0    0.0000
   1223 H         184.8224  140.5445   93.8229 H        79        0    0.0000
   1224 H         184.2780  141.7140   95.0390 H        79        0    0.0000
   1225 H         186.6457  141.4890   95.5062 H        79        0    0.0000
   1226 H         187.0452  141.5101   93.7792 H        79        0    0.0000
   1227 H         185.9080  143.7518   95.5098 H        79        0    0.0000
   1228 H         188.4626  143.3985   94.0640 H        79        0    0.0000
   1229 H         187.7066  144.9709   93.8373 H        79        0    0.0000
   1230 H         185.8960  144.2667   92.5588 H        79        0    0.0000
   1231 H         184.7328  144.6625   93.8103 H        79        0    0.0000
   1232 H         185.0826  142.2031   92.1361 H        79        0    0.0000
   1233 H         182.7482  143.6278   93.3265 H        79        0    0.0000
   1234 H         183.0204  143.0565   91.6849 H        79        0    0.0000
   1235 C         182.2449  141.5335   93.0291 C.3      80        0    0.0000
   1236 C         181.8618  140.7374   91.7733 C.3      80        0    0.0000
   1237 H         181.3212  141.9002   93.4947 H        80        0    0.0000
   1238 H         182.7378  140.8947   93.7713 H        80        0    0.0000
   1239 H         180.7889  140.5123   91.8271 H        80        0    0.0000
   1240 H         182.0124  141.3306   90.8637 H        80        0    0.0000
   1241 C         185.4296  140.2396   93.9809 C.3      81        0    0.0000
   1242 C         184.3183  140.6537   93.0127 C.3      81        0    0.0000
   1243 C         184.0614  139.4413   92.1081 C.3      81        0    0.0000
   1244 C         182.6062  139.3640   91.6378 C.3      81        0    0.0000
   1245 C         184.5171  138.2601   92.9711 C.3      81        0    0.0000
   1246 C         185.7979  138.7943   93.6209 C.3      81        0    0.0000
   1247 C         186.2777  137.9960   94.8362 C.3      81        0    0.0000
   1248 H         186.2999  140.8992   93.8969 H        81        0    0.0000
   1249 H         185.0628  140.3154   95.0115 H        81        0    0.0000
   1250 H         184.6076  141.5299   92.4225 H        81        0    0.0000
   1251 H         183.4216  140.9270   93.5817 H        81        0    0.0000
   1252 H         184.7279  139.5168   91.2366 H        81        0    0.0000
   1253 H         182.0715  138.6170   92.2366 H        81        0    0.0000
   1254 H         182.5607  139.0255   90.5961 H        81        0    0.0000
   1255 H         184.7058  137.3641   92.3712 H        81        0    0.0000
   1256 H         183.7641  138.0147   93.7306 H        81        0    0.0000
   1257 H         186.5917  138.8223   92.8602 H        81        0    0.0000
   1258 H         185.5725  138.1089   95.6679 H        81        0    0.0000
   1259 H         187.2378  138.4002   95.1787 H        81        0    0.0000
   1260 C         186.4628  136.4872   94.5165 C.3      82        0    0.0000
   1261 C         187.5011  135.7845   95.4029 C.3      82        0    0.0000
   1262 H         185.4906  136.0062   94.6843 H        82        0    0.0000
   1263 H         186.6955  136.3607   93.4527 H        82        0    0.0000
   1264 H         188.3761  136.4223   95.5745 H        82        0    0.0000
   1265 H         187.0453  135.6062   96.3853 H        82        0    0.0000
   1266 C         189.2210  132.0929   97.4891 C.3      83        0    0.0000
   1267 C         188.6873  133.4907   97.1662 C.3      83        0    0.0000
   1268 C         189.0890  133.7898   95.7107 C.3      83        0    0.0000
   1269 C         187.9633  134.3885   94.8584 C.3      83        0    0.0000
   1270 C         189.5808  132.4448   95.1661 C.3      83        0    0.0000
   1271 C         190.2149  131.7479   96.3747 C.3      83        0    0.0000
   1272 C         191.6429  132.2504   96.6601 C.3      83        0    0.0000
   1273 H         189.6499  132.0428   98.4944 H        83        0    0.0000
   1274 H         188.3863  131.3807   97.4597 H        83        0    0.0000
   1275 H         187.6037  133.5239   97.3241 H        83        0    0.0000
   1276 H         189.1352  134.2341   97.8360 H        83        0    0.0000
   1277 H         189.9408  134.4847   95.7238 H        83        0    0.0000
   1278 H         188.3166  134.5164   93.8282 H        83        0    0.0000
   1279 H         187.1080  133.7042   94.8183 H        83        0    0.0000
   1280 H         190.2796  132.5707   94.3328 H        83        0    0.0000
   1281 H         188.7347  131.8478   94.8020 H        83        0    0.0000
   1282 H         190.2363  130.6639   96.2049 H        83        0    0.0000
   1283 H         191.8341  132.3084   97.7374 H        83        0    0.0000
   1284 H         191.7582  133.2652   96.2610 H        83        0    0.0000
   1285 C         193.2709  129.4753   92.8359 C.3      84        0    0.0000
   1286 C         193.3354  130.8316   93.5423 C.3      84        0    0.0000
   1287 C         192.2507  130.8112   94.6342 C.3      84        0    0.0000
   1288 C         192.7182  131.3434   95.9945 C.3      84        0    0.0000
   1289 C         191.8049  129.3471   94.7024 C.3      84        0    0.0000
   1290 C         191.9473  128.8331   93.2657 C.3      84        0    0.0000
   1291 C         190.7588  129.2417   92.3750 C.3      84        0    0.0000
   1292 H         193.3818  129.5748   91.7519 H        84        0    0.0000
   1293 H         194.1036  128.8534   93.1886 H        84        0    0.0000
   1294 H         194.3410  130.9973   93.9444 H        84        0    0.0000
   1295 H         193.1331  131.6417   92.8320 H        84        0    0.0000
   1296 H         191.3985  131.4116   94.2850 H        84        0    0.0000
   1297 H         192.9238  130.4993   96.6635 H        84        0    0.0000
   1298 H         193.6568  131.8990   95.8863 H        84        0    0.0000
   1299 H         190.7863  129.2462   95.0910 H        84        0    0.0000
   1300 H         192.4698  128.7757   95.3630 H        84        0    0.0000
   1301 H         192.0389  127.7396   93.2736 H        84        0    0.0000
   1302 H         191.0231  129.1878   91.3131 H        84        0    0.0000
   1303 H         190.4890  130.2838   92.5836 H        84        0    0.0000
   1304 C         191.4369  127.2432   95.5573 C.3      85        0    0.0000
   1305 C         190.5432  128.3359   94.9725 C.3      85        0    0.0000
   1306 C         189.5788  127.6411   93.9957 C.3      85        0    0.0000
   1307 C         189.5072  128.3554   92.6396 C.3      85        0    0.0000
   1308 C         190.0819  126.1916   93.9141 C.3      85        0    0.0000
   1309 C         190.7207  125.9186   95.2817 C.3      85        0    0.0000
   1310 C         189.7111  125.5741   96.3919 C.3      85        0    0.0000
   1311 H         192.3986  127.2507   95.0286 H        85        0    0.0000
   1312 H         191.6499  127.4096   96.6179 H        85        0    0.0000
   1313 H         191.1514  129.1106   94.4927 H        85        0    0.0000
   1314 H         189.9705  128.8241   95.7698 H        85        0    0.0000
   1315 H         188.5792  127.6399   94.4528 H        85        0    0.0000
   1316 H         188.6010  128.9692   92.5798 H        85        0    0.0000
   1317 H         189.4367  127.6081   91.8401 H        85        0    0.0000
   1318 H         189.2778  125.4913   93.6679 H        85        0    0.0000
   1319 H         190.8492  126.0981   93.1345 H        85        0    0.0000
   1320 H         191.4581  125.1098   95.2001 H        85        0    0.0000
   1321 H         188.7931  125.1459   95.9754 H        85        0    0.0000
   1322 H         189.4193  126.4943   96.9125 H        85        0    0.0000
   1323 C         192.1859  122.5922   94.9460 C.3      86        0    0.0000
   1324 C         190.8770  123.3130   95.2780 C.3      86        0    0.0000
   1325 C         190.7229  123.2628   96.8087 C.3      86        0    0.0000
   1326 C         190.3096  124.5967   97.4428 C.3      86        0    0.0000
   1327 C         192.0841  122.7737   97.3138 C.3      86        0    0.0000
   1328 C         192.5878  121.8320   96.2146 C.3      86        0    0.0000
   1329 C         191.9552  120.4304   96.3065 C.3      86        0    0.0000
   1330 H         192.0872  121.9551   94.0620 H        86        0    0.0000
   1331 H         192.9540  123.3422   94.7177 H        86        0    0.0000
   1332 H         190.9025  124.3358   94.8860 H        86        0    0.0000
   1333 H         190.0303  122.8048   94.8020 H        86        0    0.0000
   1334 H         189.9726  122.4980   97.0549 H        86        0    0.0000
   1335 H         189.5547  124.4125   98.2164 H        86        0    0.0000
   1336 H         191.1663  125.0659   97.9402 H        86        0    0.0000
   1337 H         192.0076  122.2848   98.2904 H        86        0    0.0000
   1338 H         192.7783  123.6175   97.4189 H        86        0    0.0000
   1339 H         193.6799  121.7446   96.2769 H        86        0    0.0000
   1340 H         192.0006  119.9118   95.3424 H        86        0    0.0000
   1341 H         190.8944  120.5263   96.5670 H        86        0    0.0000
   1342 C         192.6438  119.5561   97.3943 C.3      87        0    0.0000
   1343 C         192.2580  118.0711   97.3375 C.3      87        0    0.0000
   1344 H         193.7254  119.6336   97.2252 H        87        0    0.0000
   1345 H         192.4505  119.9808   98.3864 H        87        0    0.0000
   1346 H         191.3852  117.8613   97.9669 H        87        0    0.0000
   1347 H         191.9655  117.8345   96.3064 H        87        0    0.0000
   1348 C         193.4263  117.0946   97.7119 C.3      88        0    0.0000
   1349 C         193.3153  115.7095   97.0587 C.3      88        0    0.0000
   1350 H         194.3551  117.5628   97.3615 H        88        0    0.0000
   1351 H         193.5070  117.0160   98.8025 H        88        0    0.0000
   1352 H         192.6123  115.0674   97.6022 H        88        0    0.0000
   1353 H         192.9043  115.8410   96.0495 H        88        0    0.0000
   1354 C         194.4816  111.9700   94.5717 C.3      89        0    0.0000
   1355 C         193.8774  112.8404   95.6647 C.3      89        0    0.0000
   1356 C         194.7796  114.0788   95.6532 C.3      89        0    0.0000
   1357 C         194.6884  114.9702   96.8955 C.3      89        0    0.0000
   1358 C         196.1880  113.5516   95.3156 C.3      89        0    0.0000
   1359 C         195.9875  112.1061   94.8198 C.3      89        0    0.0000
   1360 C         196.8869  111.6762   93.6568 C.3      89        0    0.0000
   1361 H         194.1453  110.9310   94.6437 H        89        0    0.0000
   1362 H         194.1894  112.3548   93.5884 H        89        0    0.0000
   1363 H         192.8325  113.0909   95.4570 H        89        0    0.0000
   1364 H         193.9163  112.3110   96.6231 H        89        0    0.0000
   1365 H         194.4611  114.6974   94.8007 H        89        0    0.0000
   1366 H         194.8680  114.3596   97.7883 H        89        0    0.0000
   1367 H         195.4891  115.7184   96.8593 H        89        0    0.0000
   1368 H         196.8612  113.5521   96.1796 H        89        0    0.0000
   1369 H         196.6507  114.1994   94.5632 H        89        0    0.0000
   1370 H         196.2325  111.4454   95.6650 H        89        0    0.0000
   1371 H         197.3346  112.5677   93.2019 H        89        0    0.0000
   1372 H         197.7145  111.0727   94.0480 H        89        0    0.0000
   1373 C         196.1546  110.8624   92.5479 C.3      90        0    0.0000
   1374 C         197.0919  110.0218   91.6691 C.3      90        0    0.0000
   1375 H         195.4643  110.1796   93.0596 H        90        0    0.0000
   1376 H         195.5373  111.5361   91.9420 H        90        0    0.0000
   1377 H         197.8401  110.6490   91.1704 H        90        0    0.0000
   1378 H         197.6441  109.3335   92.3218 H        90        0    0.0000
   1379 C         198.9924  107.1575   88.7540 C.3      91        0    0.0000
   1380 C         198.6062  108.0835   89.8972 C.3      91        0    0.0000
   1381 C         197.2414  108.6354   89.4660 C.3      91        0    0.0000
   1382 C         196.3487  109.1400   90.6068 C.3      91        0    0.0000
   1383 C         196.6166  107.5479   88.5679 C.3      91        0    0.0000
   1384 C         197.6786  106.4413   88.4343 C.3      91        0    0.0000
   1385 C         197.7153  105.7506   87.0688 C.3      91        0    0.0000
   1386 H         199.3443  107.7413   87.8947 H        91        0    0.0000
   1387 H         199.7847  106.4598   89.0419 H        91        0    0.0000
   1388 H         198.5444  107.5097   90.8282 H        91        0    0.0000
   1389 H         199.3418  108.8807   90.0435 H        91        0    0.0000
   1390 H         197.4361  109.5033   88.8183 H        91        0    0.0000
   1391 H         195.5238  109.7240   90.1813 H        91        0    0.0000
   1392 H         195.8956  108.2801   91.1142 H        91        0    0.0000
   1393 H         196.3755  107.9865   87.5916 H        91        0    0.0000
   1394 H         195.6833  107.1414   88.9717 H        91        0    0.0000
   1395 H         197.4948  105.6928   89.2189 H        91        0    0.0000
   1396 H         196.9549  104.9620   87.0233 H        91        0    0.0000
   1397 H         197.4616  106.4777   86.2882 H        91        0    0.0000
   1398 C         199.1076  105.1386   86.7472 C.3      92        0    0.0000
   1399 C         199.3867  104.9776   85.2460 C.3      92        0    0.0000
   1400 H         199.1293  104.1420   87.2063 H        92        0    0.0000
   1401 H         199.8920  105.7268   87.2379 H        92        0    0.0000
   1402 H         199.0216  103.9901   84.9359 H        92        0    0.0000
   1403 H         198.8320  105.7164   84.6557 H        92        0    0.0000
   1404 C         200.9080  105.0361   84.8709 C.3      93        0    0.0000
   1405 C         201.1911  104.8201   83.3774 C.3      93        0    0.0000
   1406 H         201.4035  104.2328   85.4310 H        93        0    0.0000
   1407 H         201.3402  105.9788   85.2265 H        93        0    0.0000
   1408 H         200.9085  105.7352   82.8415 H        93        0    0.0000
   1409 H         202.2606  104.6660   83.1923 H        93        0    0.0000
   1410 C         198.6426  104.5039   79.6125 C.3      94        0    0.0000
   1411 C         199.6153  104.9772   80.6916 C.3      94        0    0.0000
   1412 C         200.3486  103.7256   81.2040 C.3      94        0    0.0000
   1413 C         200.3697  103.6483   82.7363 C.3      94        0    0.0000
   1414 C         199.6309  102.5474   80.5276 C.3      94        0    0.0000
   1415 C         199.1190  103.1101   79.1955 C.3      94        0    0.0000
   1416 C         200.1866  103.1796   78.0883 C.3      94        0    0.0000
   1417 H         197.6386  104.4268   80.0489 H        94        0    0.0000
   1418 H         198.5790  105.2090   78.7778 H        94        0    0.0000
   1419 H         199.0775  105.5104   81.4832 H        94        0    0.0000
   1420 H         200.3410  105.6800   80.2656 H        94        0    0.0000
   1421 H         201.3827  103.7654   80.8333 H        94        0    0.0000
   1422 H         200.7817  102.6866   83.0635 H        94        0    0.0000
   1423 H         199.3419  103.6978   83.1154 H        94        0    0.0000
   1424 H         200.2893  101.6821   80.4039 H        94        0    0.0000
   1425 H         198.7743  102.2245   81.1336 H        94        0    0.0000
   1426 H         198.2658  102.5194   78.8383 H        94        0    0.0000
   1427 H         201.1012  103.6633   78.4479 H        94        0    0.0000
   1428 H         199.8105  103.7955   77.2625 H        94        0    0.0000
   1429 C         199.9552  101.6459   80.7504 C.3      95        0    0.0000
   1430 C         200.9061  100.8478   79.8542 C.3      95        0    0.0000
   1431 C         200.1841  100.6511   78.5167 C.3      95        0    0.0000
   1432 C         200.5316  101.7736   77.5207 C.3      95        0    0.0000
   1433 C         198.7124  100.6177   78.9480 C.3      95        0    0.0000
   1434 C         198.6050  101.7080   80.0171 C.3      95        0    0.0000
   1435 C         197.3819  101.5192   80.9216 C.3      95        0    0.0000
   1436 H         199.8773  101.1620   81.7306 H        95        0    0.0000
   1437 H         200.3417  102.6577   80.9178 H        95        0    0.0000
   1438 H         201.0877   99.8686   80.3151 H        95        0    0.0000
   1439 H         201.8794  101.3385   79.7515 H        95        0    0.0000
   1440 H         200.4690   99.6859   78.0788 H        95        0    0.0000
   1441 H         199.9591  101.6257   76.5971 H        95        0    0.0000
   1442 H         201.5899  101.7425   77.2404 H        95        0    0.0000
   1443 H         198.4833   99.6356   79.3820 H        95        0    0.0000
   1444 H         198.0110  100.7835   78.1248 H        95        0    0.0000
   1445 H         198.5295  102.6817   79.5129 H        95        0    0.0000
   1446 H         196.4865  101.3315   80.3178 H        95        0    0.0000
   1447 H         197.1987  102.4427   81.4836 H        95        0    0.0000
   1448 C         199.4689   98.1474   79.4943 C.3      96        0    0.0000
   1449 C         198.2097   98.9147   79.8672 C.3      96        0    0.0000
   1450 C         198.3727   99.1613   81.3724 C.3      96        0    0.0000
   1451 C         197.5831  100.3522   81.9305 C.3      96        0    0.0000
   1452 C         199.8937   99.1981   81.6267 C.3      96        0    0.0000
   1453 C         200.5610   98.8805   80.2760 C.3      96        0    0.0000
   1454 C         201.8492   98.0597   80.3757 C.3      96        0    0.0000
   1455 H         199.3858   97.1021   79.8157 H        96        0    0.0000
   1456 H         199.6523   98.1607   78.4155 H        96        0    0.0000
   1457 H         198.1682   99.8494   79.2975 H        96        0    0.0000
   1458 H         197.3025   98.3452   79.6421 H        96        0    0.0000
   1459 H         197.9901   98.2676   81.8876 H        96        0    0.0000
   1460 H         196.5985  100.0019   82.2626 H        96        0    0.0000
   1461 H         198.0959  100.7368   82.8200 H        96        0    0.0000
   1462 H         200.1476   98.4438   82.3819 H        96        0    0.0000
   1463 H         200.2415  100.1622   82.0124 H        96        0    0.0000
   1464 H         200.7709   99.8314   79.7650 H        96        0    0.0000
   1465 H         202.5300   98.5116   81.1067 H        96        0    0.0000
   1466 H         201.6111   97.0555   80.7464 H        96        0    0.0000
   1467 C         199.5729   97.4595   76.7521 C.3      97        0    0.0000
   1468 C         200.1878   97.4306   78.1430 C.3      97        0    0.0000
   1469 C         201.6967   97.4077   77.8676 C.3      97        0    0.0000
   1470 C         202.5791   97.9272   79.0097 C.3      97        0    0.0000
   1471 C         201.8838   98.1177   76.5110 C.3      97        0    0.0000
   1472 C         200.4687   98.4474   76.0019 C.3      97        0    0.0000
   1473 C         200.2946   98.3467   74.4845 C.3      97        0    0.0000
   1474 H         199.6156   96.4623   76.2973 H        97        0    0.0000
   1475 H         198.5275   97.7822   76.7730 H        97        0    0.0000
   1476 H         199.8825   98.3250   78.6969 H        97        0    0.0000
   1477 H         199.8633   96.5557   78.7151 H        97        0    0.0000
   1478 H         201.9788   96.3556   77.7124 H        97        0    0.0000
   1479 H         203.4348   97.2527   79.1331 H        97        0    0.0000
   1480 H         202.9881   98.9053   78.7299 H        97        0    0.0000
   1481 H         202.4054   97.4408   75.8229 H        97        0    0.0000
   1482 H         202.4906   99.0266   76.5819 H        97        0    0.0000
   1483 H         200.2130   99.4643   76.3335 H        97        0    0.0000
   1484 H         200.5781   97.3462   74.1368 H        97        0    0.0000
   1485 H         199.2359   98.4792   74.2317 H        97        0    0.0000
   1486 H         200.8789   99.0929   73.9461 H        97        0    0.0000
   1487 H          94.6342  141.2736   65.4839 H         0        0    0.0000
@<TRIPOS>BOND
     1     1     2      1
     2     1     6      1
     3     1     8      1
     4     1     9      1
     5     2     3      1
     6     2    10      1
     7     2    11      1
     8     3     4      1
     9     3     5      1
    10     3    12      1
    11     4    13      1
    12     4    14      1
    13     4  1487      H
    14     5     6      1
    15     5    15      1
    16     5    16      1
    17     6     7      1
    18     6    17      1
    19     7    18      1
    20     7    19      1
    21     7    23      1
    22    20    21      1
    23    20    25      1
    24    20    27      1
    25    20    28      1
    26    21    22      1
    27    21    29      1
    28    21    30      1
    29    22    23      1
    30    22    24      1
    31    22    31      1
    32    23    32      1
    33    23    33      1
    34    24    25      1
    35    24    34      1
    36    24    35      1
    37    25    26      1
    38    25    36      1
    39    26    37      1
    40    26    38      1
    41    26    39      1
    42    39    40      1
    43    39    41      1
    44    39    42      1
    45    40    43      1
    46    40    44      1
    47    40    48      1
    48    45    46      1
    49    45    50      1
    50    45    52      1
    51    45    53      1
    52    46    47      1
    53    46    54      1
    54    46    55      1
    55    47    48      1
    56    47    49      1
    57    47    56      1
    58    48    57      1
    59    48    58      1
    60    49    50      1
    61    49    59      1
    62    49    60      1
    63    50    51      1
    64    50    61      1
    65    51    62      1
    66    51    63      1
    67    51    64      1
    68    64    65      1
    69    64    66      1
    70    64    67      1
    71    65    68      1
    72    65    69      1
    73    65    73      1
    74    70    71      1
    75    70    75      1
    76    70    77      1
    77    70    78      1
    78    71    72      1
    79    71    79      1
    80    71    80      1
    81    72    73      1
    82    72    74      1
    83    72    81      1
    84    73    82      1
    85    73    83      1
    86    74    75      1
    87    74    84      1
    88    74    85      1
    89    75    76      1
    90    75    86      1
    91    76    87      1
    92    76    88      1
    93    76    92      1
    94    89    90      1
    95    89    94      1
    96    89    96      1
    97    89    97      1
    98    90    91      1
    99    90    98      1
   100    90    99      1
   101    91    92      1
   102    91    93      1
   103    91   100      1
   104    92   101      1
   105    92   102      1
   106    93    94      1
   107    93   103      1
   108    93   104      1
   109    94    95      1
   110    94   105      1
   111    95   106      1
   112    95   107      1
   113    95   108      1
   114   108   109      1
   115   108   110      1
   116   108   111      1
   117   109   112      1
   118   109   113      1
   119   109   114      1
   120   114   115      1
   121   114   116      1
   122   114   117      1
   123   115   118      1
   124   115   119      1
   125   115   120      1
   126   120   121      1
   127   120   122      1
   128   120   123      1
   129   121   124      1
   130   121   125      1
   131   121   126      1
   132   126   127      1
   133   126   128      1
   134   126   129      1
   135   127   130      1
   136   127   131      1
   137   127   135      1
   138   132   133      1
   139   132   137      1
   140   132   139      1
   141   132   140      1
   142   133   134      1
   143   133   141      1
   144   133   142      1
   145   134   135      1
   146   134   136      1
   147   134   143      1
   148   135   144      1
   149   135   145      1
   150   136   137      1
   151   136   146      1
   152   136   147      1
   153   137   138      1
   154   137   148      1
   155   138   149      1
   156   138   150      1
   157   138   154      1
   158   151   152      1
   159   151   156      1
   160   151   158      1
   161   151   159      1
   162   152   153      1
   163   152   160      1
   164   152   161      1
   165   153   154      1
   166   153   155      1
   167   153   162      1
   168   154   163      1
   169   154   164      1
   170   155   156      1
   171   155   165      1
   172   155   166      1
   173   156   157      1
   174   156   167      1
   175   157   168      1
   176   157   169      1
   177   157   170      1
   178   170   171      1
   179   170   172      1
   180   170   173      1
   181   171   174      1
   182   171   175      1
   183   171   179      1
   184   176   177      1
   185   176   181      1
   186   176   183      1
   187   176   184      1
   188   177   178      1
   189   177   185      1
   190   177   186      1
   191   178   179      1
   192   178   180      1
   193   178   187      1
   194   179   188      1
   195   179   189      1
   196   180   181      1
   197   180   190      1
   198   180   191      1
   199   181   182      1
   200   181   192      1
   201   182   193      1
   202   182   194      1
   203   182   195      1
   204   195   196      1
   205   195   197      1
   206   195   198      1
   207   196   199      1
   208   196   200      1
   209   196   204      1
   210   201   202      1
   211   201   206      1
   212   201   208      1
   213   201   209      1
   214   202   203      1
   215   202   210      1
   216   202   211      1
   217   203   204      1
   218   203   205      1
   219   203   212      1
   220   204   213      1
   221   204   214      1
   222   205   206      1
   223   205   215      1
   224   205   216      1
   225   206   207      1
   226   206   217      1
   227   207   218      1
   228   207   219      1
   229   207   223      1
   230   220   221      1
   231   220   225      1
   232   220   227      1
   233   220   228      1
   234   221   222      1
   235   221   229      1
   236   221   230      1
   237   222   223      1
   238   222   224      1
   239   222   231      1
   240   223   232      1
   241   223   233      1
   242   224   225      1
   243   224   234      1
   244   224   235      1
   245   225   226      1
   246   225   236      1
   247   226   237      1
   248   226   238      1
   249   226   242      1
   250   239   240      1
   251   239   244      1
   252   239   246      1
   253   239   247      1
   254   240   241      1
   255   240   248      1
   256   240   249      1
   257   241   242      1
   258   241   243      1
   259   241   250      1
   260   242   251      1
   261   242   252      1
   262   243   244      1
   263   243   253      1
   264   243   254      1
   265   244   245      1
   266   244   255      1
   267   245   256      1
   268   245   257      1
   269   245   261      1
   270   258   259      1
   271   258   263      1
   272   258   265      1
   273   258   266      1
   274   259   260      1
   275   259   267      1
   276   259   268      1
   277   260   261      1
   278   260   262      1
   279   260   269      1
   280   261   270      1
   281   261   271      1
   282   262   263      1
   283   262   272      1
   284   262   273      1
   285   263   264      1
   286   263   274      1
   287   264   275      1
   288   264   276      1
   289   264   277      1
   290   277   278      1
   291   277   279      1
   292   277   280      1
   293   278   281      1
   294   278   282      1
   295   278   286      1
   296   283   284      1
   297   283   288      1
   298   283   290      1
   299   283   291      1
   300   284   285      1
   301   284   292      1
   302   284   293      1
   303   285   286      1
   304   285   287      1
   305   285   294      1
   306   286   295      1
   307   286   296      1
   308   287   288      1
   309   287   297      1
   310   287   298      1
   311   288   289      1
   312   288   299      1
   313   289   300      1
   314   289   301      1
   315   289   305      1
   316   302   303      1
   317   302   307      1
   318   302   309      1
   319   302   310      1
   320   303   304      1
   321   303   311      1
   322   303   312      1
   323   304   305      1
   324   304   306      1
   325   304   313      1
   326   305   314      1
   327   305   315      1
   328   306   307      1
   329   306   316      1
   330   306   317      1
   331   307   308      1
   332   307   318      1
   333   308   319      1
   334   308   320      1
   335   308   324      1
   336   321   322      1
   337   321   326      1
   338   321   328      1
   339   321   329      1
   340   322   323      1
   341   322   330      1
   342   322   331      1
   343   323   324      1
   344   323   325      1
   345   323   332      1
   346   324   333      1
   347   324   334      1
   348   325   326      1
   349   325   335      1
   350   325   336      1
   351   326   327      1
   352   326   337      1
   353   327   338      1
   354   327   339      1
   355   327   343      1
   356   340   341      1
   357   340   345      1
   358   340   347      1
   359   340   348      1
   360   341   342      1
   361   341   349      1
   362   341   350      1
   363   342   343      1
   364   342   344      1
   365   342   351      1
   366   343   352      1
   367   343   353      1
   368   344   345      1
   369   344   354      1
   370   344   355      1
   371   345   346      1
   372   345   356      1
   373   346   357      1
   374   346   358      1
   375   346   362      1
   376   359   360      1
   377   359   364      1
   378   359   366      1
   379   359   367      1
   380   360   361      1
   381   360   368      1
   382   360   369      1
   383   361   362      1
   384   361   363      1
   385   361   370      1
   386   362   371      1
   387   362   372      1
   388   363   364      1
   389   363   373      1
   390   363   374      1
   391   364   365      1
   392   364   375      1
   393   365   376      1
   394   365   377      1
   395   365   381      1
   396   378   379      1
   397   378   383      1
   398   378   385      1
   399   378   386      1
   400   379   380      1
   401   379   387      1
   402   379   388      1
   403   380   381      1
   404   380   382      1
   405   380   389      1
   406   381   390      1
   407   381   391      1
   408   382   383      1
   409   382   392      1
   410   382   393      1
   411   383   384      1
   412   383   394      1
   413   384   395      1
   414   384   396      1
   415   384   397      1
   416   397   398      1
   417   397   399      1
   418   397   400      1
   419   398   401      1
   420   398   402      1
   421   398   406      1
   422   403   404      1
   423   403   408      1
   424   403   410      1
   425   403   411      1
   426   404   405      1
   427   404   412      1
   428   404   413      1
   429   405   406      1
   430   405   407      1
   431   405   414      1
   432   406   415      1
   433   406   416      1
   434   407   408      1
   435   407   417      1
   436   407   418      1
   437   408   409      1
   438   408   419      1
   439   409   420      1
   440   409   421      1
   441   409   425      1
   442   422   423      1
   443   422   427      1
   444   422   429      1
   445   422   430      1
   446   423   424      1
   447   423   431      1
   448   423   432      1
   449   424   425      1
   450   424   426      1
   451   424   433      1
   452   425   434      1
   453   425   435      1
   454   426   427      1
   455   426   436      1
   456   426   437      1
   457   427   428      1
   458   427   438      1
   459   428   439      1
   460   428   440      1
   461   428   444      1
   462   441   442      1
   463   441   446      1
   464   441   448      1
   465   441   449      1
   466   442   443      1
   467   442   450      1
   468   442   451      1
   469   443   444      1
   470   443   445      1
   471   443   452      1
   472   444   453      1
   473   444   454      1
   474   445   446      1
   475   445   455      1
   476   445   456      1
   477   446   447      1
   478   446   457      1
   479   447   458      1
   480   447   459      1
   481   447   463      1
   482   460   461      1
   483   460   465      1
   484   460   467      1
   485   460   468      1
   486   461   462      1
   487   461   469      1
   488   461   470      1
   489   462   463      1
   490   462   464      1
   491   462   471      1
   492   463   472      1
   493   463   473      1
   494   464   465      1
   495   464   474      1
   496   464   475      1
   497   465   466      1
   498   465   476      1
   499   466   477      1
   500   466   478      1
   501   466   479      1
   502   479   480      1
   503   479   481      1
   504   479   482      1
   505   480   483      1
   506   480   484      1
   507   480   488      1
   508   485   486      1
   509   485   490      1
   510   485   492      1
   511   485   493      1
   512   486   487      1
   513   486   494      1
   514   486   495      1
   515   487   488      1
   516   487   489      1
   517   487   496      1
   518   488   497      1
   519   488   498      1
   520   489   490      1
   521   489   499      1
   522   489   500      1
   523   490   491      1
   524   490   501      1
   525   491   502      1
   526   491   503      1
   527   491   507      1
   528   504   505      1
   529   504   509      1
   530   504   511      1
   531   504   512      1
   532   505   506      1
   533   505   513      1
   534   505   514      1
   535   506   507      1
   536   506   508      1
   537   506   515      1
   538   507   516      1
   539   507   517      1
   540   508   509      1
   541   508   518      1
   542   508   519      1
   543   509   510      1
   544   509   520      1
   545   510   521      1
   546   510   522      1
   547   510   526      1
   548   523   524      1
   549   523   528      1
   550   523   530      1
   551   523   531      1
   552   524   525      1
   553   524   532      1
   554   524   533      1
   555   525   526      1
   556   525   527      1
   557   525   534      1
   558   526   535      1
   559   526   536      1
   560   527   528      1
   561   527   537      1
   562   527   538      1
   563   528   529      1
   564   528   539      1
   565   529   540      1
   566   529   541      1
   567   529   545      1
   568   542   543      1
   569   542   547      1
   570   542   549      1
   571   542   550      1
   572   543   544      1
   573   543   551      1
   574   543   552      1
   575   544   545      1
   576   544   546      1
   577   544   553      1
   578   545   554      1
   579   545   555      1
   580   546   547      1
   581   546   556      1
   582   546   557      1
   583   547   548      1
   584   547   558      1
   585   548   559      1
   586   548   560      1
   587   548   564      1
   588   561   562      1
   589   561   566      1
   590   561   568      1
   591   561   569      1
   592   562   563      1
   593   562   570      1
   594   562   571      1
   595   563   564      1
   596   563   565      1
   597   563   572      1
   598   564   573      1
   599   564   574      1
   600   565   566      1
   601   565   575      1
   602   565   576      1
   603   566   567      1
   604   566   577      1
   605   567   578      1
   606   567   579      1
   607   567   583      1
   608   580   581      1
   609   580   585      1
   610   580   587      1
   611   580   588      1
   612   581   582      1
   613   581   589      1
   614   581   590      1
   615   582   583      1
   616   582   584      1
   617   582   591      1
   618   583   592      1
   619   583   593      1
   620   584   585      1
   621   584   594      1
   622   584   595      1
   623   585   586      1
   624   585   596      1
   625   586   597      1
   626   586   598      1
   627   586   602      1
   628   599   600      1
   629   599   604      1
   630   599   606      1
   631   599   607      1
   632   600   601      1
   633   600   608      1
   634   600   609      1
   635   601   602      1
   636   601   603      1
   637   601   610      1
   638   602   611      1
   639   602   612      1
   640   603   604      1
   641   603   613      1
   642   603   614      1
   643   604   605      1
   644   604   615      1
   645   605   616      1
   646   605   617      1
   647   605   621      1
   648   618   619      1
   649   618   623      1
   650   618   625      1
   651   618   626      1
   652   619   620      1
   653   619   627      1
   654   619   628      1
   655   620   621      1
   656   620   622      1
   657   620   629      1
   658   621   630      1
   659   621   631      1
   660   622   623      1
   661   622   632      1
   662   622   633      1
   663   623   624      1
   664   623   634      1
   665   624   635      1
   666   624   636      1
   667   624   640      1
   668   637   638      1
   669   637   642      1
   670   637   644      1
   671   637   645      1
   672   638   639      1
   673   638   646      1
   674   638   647      1
   675   639   640      1
   676   639   641      1
   677   639   648      1
   678   640   649      1
   679   640   650      1
   680   641   642      1
   681   641   651      1
   682   641   652      1
   683   642   643      1
   684   642   653      1
   685   643   654      1
   686   643   655      1
   687   643   659      1
   688   656   657      1
   689   656   661      1
   690   656   663      1
   691   656   664      1
   692   657   658      1
   693   657   665      1
   694   657   666      1
   695   658   659      1
   696   658   660      1
   697   658   667      1
   698   659   668      1
   699   659   669      1
   700   660   661      1
   701   660   670      1
   702   660   671      1
   703   661   662      1
   704   661   672      1
   705   662   673      1
   706   662   674      1
   707   662   675      1
   708   675   676      1
   709   675   677      1
   710   675   678      1
   711   676   679      1
   712   676   680      1
   713   676   684      1
   714   681   682      1
   715   681   686      1
   716   681   688      1
   717   681   689      1
   718   682   683      1
   719   682   690      1
   720   682   691      1
   721   683   684      1
   722   683   685      1
   723   683   692      1
   724   684   693      1
   725   684   694      1
   726   685   686      1
   727   685   695      1
   728   685   696      1
   729   686   687      1
   730   686   697      1
   731   687   698      1
   732   687   699      1
   733   687   703      1
   734   700   701      1
   735   700   705      1
   736   700   707      1
   737   700   708      1
   738   701   702      1
   739   701   709      1
   740   701   710      1
   741   702   703      1
   742   702   704      1
   743   702   711      1
   744   703   712      1
   745   703   713      1
   746   704   705      1
   747   704   714      1
   748   704   715      1
   749   705   706      1
   750   705   716      1
   751   706   717      1
   752   706   718      1
   753   706   722      1
   754   719   720      1
   755   719   724      1
   756   719   726      1
   757   719   727      1
   758   720   721      1
   759   720   728      1
   760   720   729      1
   761   721   722      1
   762   721   723      1
   763   721   730      1
   764   722   731      1
   765   722   732      1
   766   723   724      1
   767   723   733      1
   768   723   734      1
   769   724   725      1
   770   724   735      1
   771   725   736      1
   772   725   737      1
   773   725   741      1
   774   738   739      1
   775   738   743      1
   776   738   745      1
   777   738   746      1
   778   739   740      1
   779   739   747      1
   780   739   748      1
   781   740   741      1
   782   740   742      1
   783   740   749      1
   784   741   750      1
   785   741   751      1
   786   742   743      1
   787   742   752      1
   788   742   753      1
   789   743   744      1
   790   743   754      1
   791   744   755      1
   792   744   756      1
   793   744   760      1
   794   757   758      1
   795   757   762      1
   796   757   764      1
   797   757   765      1
   798   758   759      1
   799   758   766      1
   800   758   767      1
   801   759   760      1
   802   759   761      1
   803   759   768      1
   804   760   769      1
   805   760   770      1
   806   761   762      1
   807   761   771      1
   808   761   772      1
   809   762   763      1
   810   762   773      1
   811   763   774      1
   812   763   775      1
   813   763   779      1
   814   776   777      1
   815   776   781      1
   816   776   783      1
   817   776   784      1
   818   777   778      1
   819   777   785      1
   820   777   786      1
   821   778   779      1
   822   778   780      1
   823   778   787      1
   824   779   788      1
   825   779   789      1
   826   780   781      1
   827   780   790      1
   828   780   791      1
   829   781   782      1
   830   781   792      1
   831   782   793      1
   832   782   794      1
   833   782   795      1
   834   795   796      1
   835   795   797      1
   836   795   798      1
   837   796   799      1
   838   796   800      1
   839   796   804      1
   840   801   802      1
   841   801   806      1
   842   801   808      1
   843   801   809      1
   844   802   803      1
   845   802   810      1
   846   802   811      1
   847   803   804      1
   848   803   805      1
   849   803   812      1
   850   804   813      1
   851   804   814      1
   852   805   806      1
   853   805   815      1
   854   805   816      1
   855   806   807      1
   856   806   817      1
   857   807   818      1
   858   807   819      1
   859   807   823      1
   860   820   821      1
   861   820   825      1
   862   820   827      1
   863   820   828      1
   864   821   822      1
   865   821   829      1
   866   821   830      1
   867   822   823      1
   868   822   824      1
   869   822   831      1
   870   823   832      1
   871   823   833      1
   872   824   825      1
   873   824   834      1
   874   824   835      1
   875   825   826      1
   876   825   836      1
   877   826   837      1
   878   826   838      1
   879   826   839      1
   880   839   840      1
   881   839   841      1
   882   839   842      1
   883   840   843      1
   884   840   844      1
   885   840   848      1
   886   845   846      1
   887   845   850      1
   888   845   852      1
   889   845   853      1
   890   846   847      1
   891   846   854      1
   892   846   855      1
   893   847   848      1
   894   847   849      1
   895   847   856      1
   896   848   857      1
   897   848   858      1
   898   849   850      1
   899   849   859      1
   900   849   860      1
   901   850   851      1
   902   850   861      1
   903   851   862      1
   904   851   863      1
   905   851   867      1
   906   864   865      1
   907   864   869      1
   908   864   871      1
   909   864   872      1
   910   865   866      1
   911   865   873      1
   912   865   874      1
   913   866   867      1
   914   866   868      1
   915   866   875      1
   916   867   876      1
   917   867   877      1
   918   868   869      1
   919   868   878      1
   920   868   879      1
   921   869   870      1
   922   869   880      1
   923   870   881      1
   924   870   882      1
   925   870   883      1
   926   883   884      1
   927   883   885      1
   928   883   886      1
   929   884   887      1
   930   884   888      1
   931   884   892      1
   932   889   890      1
   933   889   894      1
   934   889   896      1
   935   889   897      1
   936   890   891      1
   937   890   898      1
   938   890   899      1
   939   891   892      1
   940   891   893      1
   941   891   900      1
   942   892   901      1
   943   892   902      1
   944   893   894      1
   945   893   903      1
   946   893   904      1
   947   894   895      1
   948   894   905      1
   949   895   906      1
   950   895   907      1
   951   895   908      1
   952   908   909      1
   953   908   910      1
   954   908   911      1
   955   909   912      1
   956   909   913      1
   957   909   917      1
   958   914   915      1
   959   914   919      1
   960   914   921      1
   961   914   922      1
   962   915   916      1
   963   915   923      1
   964   915   924      1
   965   916   917      1
   966   916   918      1
   967   916   925      1
   968   917   926      1
   969   917   927      1
   970   918   919      1
   971   918   928      1
   972   918   929      1
   973   919   920      1
   974   919   930      1
   975   920   931      1
   976   920   932      1
   977   920   936      1
   978   933   934      1
   979   933   938      1
   980   933   940      1
   981   933   941      1
   982   934   935      1
   983   934   942      1
   984   934   943      1
   985   935   936      1
   986   935   937      1
   987   935   944      1
   988   936   945      1
   989   936   946      1
   990   937   938      1
   991   937   947      1
   992   937   948      1
   993   938   939      1
   994   938   949      1
   995   939   950      1
   996   939   951      1
   997   939   955      1
   998   952   953      1
   999   952   957      1
  1000   952   959      1
  1001   952   960      1
  1002   953   954      1
  1003   953   961      1
  1004   953   962      1
  1005   954   955      1
  1006   954   956      1
  1007   954   963      1
  1008   955   964      1
  1009   955   965      1
  1010   956   957      1
  1011   956   966      1
  1012   956   967      1
  1013   957   958      1
  1014   957   968      1
  1015   958   969      1
  1016   958   970      1
  1017   958   971      1
  1018   971   972      1
  1019   971   973      1
  1020   971   974      1
  1021   972   975      1
  1022   972   976      1
  1023   972   980      1
  1024   977   978      1
  1025   977   982      1
  1026   977   984      1
  1027   977   985      1
  1028   978   979      1
  1029   978   986      1
  1030   978   987      1
  1031   979   980      1
  1032   979   981      1
  1033   979   988      1
  1034   980   989      1
  1035   980   990      1
  1036   981   982      1
  1037   981   991      1
  1038   981   992      1
  1039   982   983      1
  1040   982   993      1
  1041   983   994      1
  1042   983   995      1
  1043   983   999      1
  1044   996   997      1
  1045   996  1001      1
  1046   996  1003      1
  1047   996  1004      1
  1048   997   998      1
  1049   997  1005      1
  1050   997  1006      1
  1051   998   999      1
  1052   998  1000      1
  1053   998  1007      1
  1054   999  1008      1
  1055   999  1009      1
  1056  1000  1001      1
  1057  1000  1010      1
  1058  1000  1011      1
  1059  1001  1002      1
  1060  1001  1012      1
  1061  1002  1013      1
  1062  1002  1014      1
  1063  1002  1015      1
  1064  1015  1016      1
  1065  1015  1017      1
  1066  1015  1018      1
  1067  1016  1019      1
  1068  1016  1020      1
  1069  1016  1024      1
  1070  1021  1022      1
  1071  1021  1026      1
  1072  1021  1028      1
  1073  1021  1029      1
  1074  1022  1023      1
  1075  1022  1030      1
  1076  1022  1031      1
  1077  1023  1024      1
  1078  1023  1025      1
  1079  1023  1032      1
  1080  1024  1033      1
  1081  1024  1034      1
  1082  1025  1026      1
  1083  1025  1035      1
  1084  1025  1036      1
  1085  1026  1027      1
  1086  1026  1037      1
  1087  1027  1038      1
  1088  1027  1039      1
  1089  1027  1043      1
  1090  1040  1041      1
  1091  1040  1045      1
  1092  1040  1047      1
  1093  1040  1048      1
  1094  1041  1042      1
  1095  1041  1049      1
  1096  1041  1050      1
  1097  1042  1043      1
  1098  1042  1044      1
  1099  1042  1051      1
  1100  1043  1052      1
  1101  1043  1053      1
  1102  1044  1045      1
  1103  1044  1054      1
  1104  1044  1055      1
  1105  1045  1046      1
  1106  1045  1056      1
  1107  1046  1057      1
  1108  1046  1058      1
  1109  1046  1059      1
  1110  1059  1060      1
  1111  1059  1061      1
  1112  1059  1062      1
  1113  1060  1063      1
  1114  1060  1064      1
  1115  1060  1068      1
  1116  1065  1066      1
  1117  1065  1070      1
  1118  1065  1072      1
  1119  1065  1073      1
  1120  1066  1067      1
  1121  1066  1074      1
  1122  1066  1075      1
  1123  1067  1068      1
  1124  1067  1069      1
  1125  1067  1076      1
  1126  1068  1077      1
  1127  1068  1078      1
  1128  1069  1070      1
  1129  1069  1079      1
  1130  1069  1080      1
  1131  1070  1071      1
  1132  1070  1081      1
  1133  1071  1082      1
  1134  1071  1083      1
  1135  1071  1087      1
  1136  1084  1085      1
  1137  1084  1089      1
  1138  1084  1091      1
  1139  1084  1092      1
  1140  1085  1086      1
  1141  1085  1093      1
  1142  1085  1094      1
  1143  1086  1087      1
  1144  1086  1088      1
  1145  1086  1095      1
  1146  1087  1096      1
  1147  1087  1097      1
  1148  1088  1089      1
  1149  1088  1098      1
  1150  1088  1099      1
  1151  1089  1090      1
  1152  1089  1100      1
  1153  1090  1101      1
  1154  1090  1102      1
  1155  1090  1103      1
  1156  1103  1104      1
  1157  1103  1105      1
  1158  1103  1106      1
  1159  1104  1107      1
  1160  1104  1108      1
  1161  1104  1109      1
  1162  1109  1110      1
  1163  1109  1111      1
  1164  1109  1112      1
  1165  1110  1113      1
  1166  1110  1114      1
  1167  1110  1118      1
  1168  1115  1116      1
  1169  1115  1120      1
  1170  1115  1122      1
  1171  1115  1123      1
  1172  1116  1117      1
  1173  1116  1124      1
  1174  1116  1125      1
  1175  1117  1118      1
  1176  1117  1119      1
  1177  1117  1126      1
  1178  1118  1127      1
  1179  1118  1128      1
  1180  1119  1120      1
  1181  1119  1129      1
  1182  1119  1130      1
  1183  1120  1121      1
  1184  1120  1131      1
  1185  1121  1132      1
  1186  1121  1133      1
  1187  1121  1137      1
  1188  1134  1135      1
  1189  1134  1139      1
  1190  1134  1141      1
  1191  1134  1142      1
  1192  1135  1136      1
  1193  1135  1143      1
  1194  1135  1144      1
  1195  1136  1137      1
  1196  1136  1138      1
  1197  1136  1145      1
  1198  1137  1146      1
  1199  1137  1147      1
  1200  1138  1139      1
  1201  1138  1148      1
  1202  1138  1149      1
  1203  1139  1140      1
  1204  1139  1150      1
  1205  1140  1151      1
  1206  1140  1152      1
  1207  1140  1153      1
  1208  1153  1154      1
  1209  1153  1155      1
  1210  1153  1156      1
  1211  1154  1157      1
  1212  1154  1158      1
  1213  1154  1162      1
  1214  1159  1160      1
  1215  1159  1164      1
  1216  1159  1166      1
  1217  1159  1167      1
  1218  1160  1161      1
  1219  1160  1168      1
  1220  1160  1169      1
  1221  1161  1162      1
  1222  1161  1163      1
  1223  1161  1170      1
  1224  1162  1171      1
  1225  1162  1172      1
  1226  1163  1164      1
  1227  1163  1173      1
  1228  1163  1174      1
  1229  1164  1165      1
  1230  1164  1175      1
  1231  1165  1176      1
  1232  1165  1177      1
  1233  1165  1181      1
  1234  1178  1179      1
  1235  1178  1183      1
  1236  1178  1185      1
  1237  1178  1186      1
  1238  1179  1180      1
  1239  1179  1187      1
  1240  1179  1188      1
  1241  1180  1181      1
  1242  1180  1182      1
  1243  1180  1189      1
  1244  1181  1190      1
  1245  1181  1191      1
  1246  1182  1183      1
  1247  1182  1192      1
  1248  1182  1193      1
  1249  1183  1184      1
  1250  1183  1194      1
  1251  1184  1195      1
  1252  1184  1196      1
  1253  1184  1200      1
  1254  1197  1198      1
  1255  1197  1202      1
  1256  1197  1204      1
  1257  1197  1205      1
  1258  1198  1199      1
  1259  1198  1206      1
  1260  1198  1207      1
  1261  1199  1200      1
  1262  1199  1201      1
  1263  1199  1208      1
  1264  1200  1209      1
  1265  1200  1210      1
  1266  1201  1202      1
  1267  1201  1211      1
  1268  1201  1212      1
  1269  1202  1203      1
  1270  1202  1213      1
  1271  1203  1214      1
  1272  1203  1215      1
  1273  1203  1219      1
  1274  1216  1217      1
  1275  1216  1221      1
  1276  1216  1223      1
  1277  1216  1224      1
  1278  1217  1218      1
  1279  1217  1225      1
  1280  1217  1226      1
  1281  1218  1219      1
  1282  1218  1220      1
  1283  1218  1227      1
  1284  1219  1228      1
  1285  1219  1229      1
  1286  1220  1221      1
  1287  1220  1230      1
  1288  1220  1231      1
  1289  1221  1222      1
  1290  1221  1232      1
  1291  1222  1233      1
  1292  1222  1234      1
  1293  1222  1235      1
  1294  1235  1236      1
  1295  1235  1237      1
  1296  1235  1238      1
  1297  1236  1239      1
  1298  1236  1240      1
  1299  1236  1244      1
  1300  1241  1242      1
  1301  1241  1246      1
  1302  1241  1248      1
  1303  1241  1249      1
  1304  1242  1243      1
  1305  1242  1250      1
  1306  1242  1251      1
  1307  1243  1244      1
  1308  1243  1245      1
  1309  1243  1252      1
  1310  1244  1253      1
  1311  1244  1254      1
  1312  1245  1246      1
  1313  1245  1255      1
  1314  1245  1256      1
  1315  1246  1247      1
  1316  1246  1257      1
  1317  1247  1258      1
  1318  1247  1259      1
  1319  1247  1260      1
  1320  1260  1261      1
  1321  1260  1262      1
  1322  1260  1263      1
  1323  1261  1264      1
  1324  1261  1265      1
  1325  1261  1269      1
  1326  1266  1267      1
  1327  1266  1271      1
  1328  1266  1273      1
  1329  1266  1274      1
  1330  1267  1268      1
  1331  1267  1275      1
  1332  1267  1276      1
  1333  1268  1269      1
  1334  1268  1270      1
  1335  1268  1277      1
  1336  1269  1278      1
  1337  1269  1279      1
  1338  1270  1271      1
  1339  1270  1280      1
  1340  1270  1281      1
  1341  1271  1272      1
  1342  1271  1282      1
  1343  1272  1283      1
  1344  1272  1284      1
  1345  1272  1288      1
  1346  1285  1286      1
  1347  1285  1290      1
  1348  1285  1292      1
  1349  1285  1293      1
  1350  1286  1287      1
  1351  1286  1294      1
  1352  1286  1295      1
  1353  1287  1288      1
  1354  1287  1289      1
  1355  1287  1296      1
  1356  1288  1297      1
  1357  1288  1298      1
  1358  1289  1290      1
  1359  1289  1299      1
  1360  1289  1300      1
  1361  1290  1291      1
  1362  1290  1301      1
  1363  1291  1302      1
  1364  1291  1303      1
  1365  1291  1307      1
  1366  1304  1305      1
  1367  1304  1309      1
  1368  1304  1311      1
  1369  1304  1312      1
  1370  1305  1306      1
  1371  1305  1313      1
  1372  1305  1314      1
  1373  1306  1307      1
  1374  1306  1308      1
  1375  1306  1315      1
  1376  1307  1316      1
  1377  1307  1317      1
  1378  1308  1309      1
  1379  1308  1318      1
  1380  1308  1319      1
  1381  1309  1310      1
  1382  1309  1320      1
  1383  1310  1321      1
  1384  1310  1322      1
  1385  1310  1326      1
  1386  1323  1324      1
  1387  1323  1328      1
  1388  1323  1330      1
  1389  1323  1331      1
  1390  1324  1325      1
  1391  1324  1332      1
  1392  1324  1333      1
  1393  1325  1326      1
  1394  1325  1327      1
  1395  1325  1334      1
  1396  1326  1335      1
  1397  1326  1336      1
  1398  1327  1328      1
  1399  1327  1337      1
  1400  1327  1338      1
  1401  1328  1329      1
  1402  1328  1339      1
  1403  1329  1340      1
  1404  1329  1341      1
  1405  1329  1342      1
  1406  1342  1343      1
  1407  1342  1344      1
  1408  1342  1345      1
  1409  1343  1346      1
  1410  1343  1347      1
  1411  1343  1348      1
  1412  1348  1349      1
  1413  1348  1350      1
  1414  1348  1351      1
  1415  1349  1352      1
  1416  1349  1353      1
  1417  1349  1357      1
  1418  1354  1355      1
  1419  1354  1359      1
  1420  1354  1361      1
  1421  1354  1362      1
  1422  1355  1356      1
  1423  1355  1363      1
  1424  1355  1364      1
  1425  1356  1357      1
  1426  1356  1358      1
  1427  1356  1365      1
  1428  1357  1366      1
  1429  1357  1367      1
  1430  1358  1359      1
  1431  1358  1368      1
  1432  1358  1369      1
  1433  1359  1360      1
  1434  1359  1370      1
  1435  1360  1371      1
  1436  1360  1372      1
  1437  1360  1373      1
  1438  1373  1374      1
  1439  1373  1375      1
  1440  1373  1376      1
  1441  1374  1377      1
  1442  1374  1378      1
  1443  1374  1382      1
  1444  1379  1380      1
  1445  1379  1384      1
  1446  1379  1386      1
  1447  1379  1387      1
  1448  1380  1381      1
  1449  1380  1388      1
  1450  1380  1389      1
  1451  1381  1382      1
  1452  1381  1383      1
  1453  1381  1390      1
  1454  1382  1391      1
  1455  1382  1392      1
  1456  1383  1384      1
  1457  1383  1393      1
  1458  1383  1394      1
  1459  1384  1385      1
  1460  1384  1395      1
  1461  1385  1396      1
  1462  1385  1397      1
  1463  1385  1398      1
  1464  1398  1399      1
  1465  1398  1400      1
  1466  1398  1401      1
  1467  1399  1402      1
  1468  1399  1403      1
  1469  1399  1404      1
  1470  1404  1405      1
  1471  1404  1406      1
  1472  1404  1407      1
  1473  1405  1408      1
  1474  1405  1409      1
  1475  1405  1413      1
  1476  1410  1411      1
  1477  1410  1415      1
  1478  1410  1417      1
  1479  1410  1418      1
  1480  1411  1412      1
  1481  1411  1419      1
  1482  1411  1420      1
  1483  1412  1413      1
  1484  1412  1414      1
  1485  1412  1421      1
  1486  1413  1422      1
  1487  1413  1423      1
  1488  1414  1415      1
  1489  1414  1424      1
  1490  1414  1425      1
  1491  1415  1416      1
  1492  1415  1426      1
  1493  1416  1427      1
  1494  1416  1428      1
  1495  1416  1432      1
  1496  1429  1430      1
  1497  1429  1434      1
  1498  1429  1436      1
  1499  1429  1437      1
  1500  1430  1431      1
  1501  1430  1438      1
  1502  1430  1439      1
  1503  1431  1432      1
  1504  1431  1433      1
  1505  1431  1440      1
  1506  1432  1441      1
  1507  1432  1442      1
  1508  1433  1434      1
  1509  1433  1443      1
  1510  1433  1444      1
  1511  1434  1435      1
  1512  1434  1445      1
  1513  1435  1446      1
  1514  1435  1447      1
  1515  1435  1451      1
  1516  1448  1449      1
  1517  1448  1453      1
  1518  1448  1455      1
  1519  1448  1456      1
  1520  1449  1450      1
  1521  1449  1457      1
  1522  1449  1458      1
  1523  1450  1451      1
  1524  1450  1452      1
  1525  1450  1459      1
  1526  1451  1460      1
  1527  1451  1461      1
  1528  1452  1453      1
  1529  1452  1462      1
  1530  1452  1463      1
  1531  1453  1454      1
  1532  1453  1464      1
  1533  1454  1465      1
  1534  1454  1466      1
  1535  1454  1470      1
  1536  1467  1468      1
  1537  1467  1472      1
  1538  1467  1474      1
  1539  1467  1475      1
  1540  1468  1469      1
  1541  1468  1476      1
  1542  1468  1477      1
  1543  1469  1470      1
  1544  1469  1471      1
  1545  1469  1478      1
  1546  1470  1479      1
  1547  1470  1480      1
  1548  1471  1472      1
  1549  1471  1481      1
  1550  1471  1482      1
  1551  1472  1473      1
  1552  1472  1483      1
  1553  1473  1484      1
  1554  1473  1485      1
  1555  1473  1486      H
