###
### Created by PolyChef-cpp17 on Wed Feb 26 21:14:13 2025
###

@<TRIPOS>MOLECULE
NO_INFO
1160 1213 1 0 0
SMALL
USER_CHARGES


@<TRIPOS>ATOM
      1 C          50.3193  168.4951  143.2148 C.3       0        0    0.0000
      2 C          50.3154  167.0363  143.6496 C.3       0        0    0.0000
      3 C          50.4864  167.1321  145.1692 C.3       0        0    0.0000
      4 C          50.9191  165.8380  145.8650 C.3       0        0    0.0000
      5 C          51.4045  168.3487  145.3983 C.3       0        0    0.0000
      6 C          51.4517  169.0983  144.0524 C.3       0        0    0.0000
      7 C          51.4564  170.6271  144.1479 C.3       0        0    0.0000
      8 H          50.5009  168.6012  142.1408 H         0        0    0.0000
      9 H          49.3499  168.9517  143.4427 H         0        0    0.0000
     10 H          49.3862  166.5293  143.3715 H         0        0    0.0000
     11 H          51.1478  166.5061  143.1738 H         0        0    0.0000
     12 H          49.5023  167.3963  145.5848 H         0        0    0.0000
     13 H          51.6107  165.2938  145.2109 H         0        0    0.0000
     14 H          51.4776  166.0894  146.7744 H         0        0    0.0000
     15 H          52.4201  168.0657  145.6954 H         0        0    0.0000
     16 H          51.0038  168.9613  146.2130 H         0        0    0.0000
     17 H          52.3960  168.8128  143.5647 H         0        0    0.0000
     18 H          51.8870  171.0418  143.2288 H         0        0    0.0000
     19 H          50.4217  170.9860  144.2009 H         0        0    0.0000
     20 C          51.6195  174.7737  146.1023 C.3       1        0    0.0000
     21 C          51.3137  173.5890  145.1826 C.3       1        0    0.0000
     22 C          52.5575  172.6825  145.2044 C.3       1        0    0.0000
     23 C          52.2446  171.1900  145.3684 C.3       1        0    0.0000
     24 C          53.4091  173.2299  146.3543 C.3       1        0    0.0000
     25 C          53.1303  174.7368  146.3573 C.3       1        0    0.0000
     26 C          53.9437  175.4870  145.2856 C.3       1        0    0.0000
     27 H          51.2660  175.7192  145.6799 H         1        0    0.0000
     28 H          51.0906  174.6286  147.0529 H         1        0    0.0000
     29 H          50.4070  173.0758  145.5213 H         1        0    0.0000
     30 H          51.1256  173.9381  144.1606 H         1        0    0.0000
     31 H          53.1115  172.8345  144.2670 H         1        0    0.0000
     32 H          53.1829  170.6308  145.4647 H         1        0    0.0000
     33 H          51.6758  171.0170  146.2892 H         1        0    0.0000
     34 H          54.4706  172.9942  146.2268 H         1        0    0.0000
     35 H          53.0855  172.7961  147.3094 H         1        0    0.0000
     36 H          53.3601  175.1515  147.3470 H         1        0    0.0000
     37 H          53.5380  176.4895  145.1105 H         1        0    0.0000
     38 H          53.8781  174.9460  144.3341 H         1        0    0.0000
     39 C          55.4461  175.6005  145.6752 C.3       2        0    0.0000
     40 C          56.4055  175.5702  144.4768 C.3       2        0    0.0000
     41 H          55.5691  176.5644  146.1855 H         2        0    0.0000
     42 H          55.6976  174.8241  146.4072 H         2        0    0.0000
     43 H          56.6836  174.5428  144.2144 H         2        0    0.0000
     44 H          55.8780  175.9841  143.6079 H         2        0    0.0000
     45 C          57.5760  180.1061  145.1952 C.3       3        0    0.0000
     46 C          56.7848  178.7962  145.1635 C.3       3        0    0.0000
     47 C          57.5077  177.8693  144.1697 C.3       3        0    0.0000
     48 C          57.6992  176.4338  144.6745 C.3       3        0    0.0000
     49 C          58.8401  178.5725  143.8915 C.3       3        0    0.0000
     50 C          58.5142  180.0671  143.9840 C.3       3        0    0.0000
     51 C          57.8633  180.6073  142.6964 C.3       3        0    0.0000
     52 H          56.9173  180.9795  145.2156 H         3        0    0.0000
     53 H          58.1758  180.1343  146.1140 H         3        0    0.0000
     54 H          56.7211  178.3723  146.1718 H         3        0    0.0000
     55 H          55.7587  178.9784  144.8234 H         3        0    0.0000
     56 H          56.9305  177.8493  143.2343 H         3        0    0.0000
     57 H          58.5206  175.9614  144.1226 H         3        0    0.0000
     58 H          57.9865  176.4349  145.7322 H         3        0    0.0000
     59 H          59.2591  178.2880  142.9208 H         3        0    0.0000
     60 H          59.5782  178.3108  144.6607 H         3        0    0.0000
     61 H          59.4316  180.6314  144.1939 H         3        0    0.0000
     62 H          57.1877  181.4417  142.9146 H         3        0    0.0000
     63 H          57.2567  179.8181  142.2366 H         3        0    0.0000
     64 C          58.9290  181.0654  141.6590 C.3       4        0    0.0000
     65 C          59.3956  179.9517  140.7106 C.3       4        0    0.0000
     66 H          58.4638  181.8546  141.0545 H         4        0    0.0000
     67 H          59.7762  181.5274  142.1791 H         4        0    0.0000
     68 H          58.6088  179.2042  140.5556 H         4        0    0.0000
     69 H          59.5982  180.4019  139.7304 H         4        0    0.0000
     70 C          60.8818  182.4188  141.9730 C.3       5        0    0.0000
     71 C          61.5103  181.6280  140.8224 C.3       5        0    0.0000
     72 C          61.8639  180.2464  141.3837 C.3       5        0    0.0000
     73 C          60.7176  179.2410  141.1642 C.3       5        0    0.0000
     74 C          62.1579  180.5632  142.8555 C.3       5        0    0.0000
     75 C          61.0838  181.5813  143.2468 C.3       5        0    0.0000
     76 C          61.4751  182.3945  144.4859 C.3       5        0    0.0000
     77 H          61.3512  183.4066  142.0428 H         5        0    0.0000
     78 H          59.8130  182.5796  141.7916 H         5        0    0.0000
     79 H          62.4297  182.1361  140.5051 H         5        0    0.0000
     80 H          60.8515  181.5836  139.9491 H         5        0    0.0000
     81 H          62.7694  179.8664  140.8933 H         5        0    0.0000
     82 H          60.5183  178.7112  142.1036 H         5        0    0.0000
     83 H          60.9935  178.4784  140.4281 H         5        0    0.0000
     84 H          63.1561  181.0128  142.9379 H         5        0    0.0000
     85 H          62.1408  179.6828  143.5048 H         5        0    0.0000
     86 H          60.1512  181.0385  143.4556 H         5        0    0.0000
     87 H          61.0817  181.9206  145.3928 H         5        0    0.0000
     88 H          61.0217  183.3909  144.4255 H         5        0    0.0000
     89 C          64.0856  183.7229  141.1861 C.3       6        0    0.0000
     90 C          63.0026  183.2543  142.1614 C.3       6        0    0.0000
     91 C          63.7240  182.4556  143.2549 C.3       6        0    0.0000
     92 C          63.0176  182.5543  144.6098 C.3       6        0    0.0000
     93 C          65.1425  183.0348  143.2307 C.3       6        0    0.0000
     94 C          65.4164  183.1876  141.7308 C.3       6        0    0.0000
     95 C          66.5957  184.1020  141.3876 C.3       6        0    0.0000
     96 H          63.8988  183.3524  140.1724 H         6        0    0.0000
     97 H          64.0836  184.8184  141.1371 H         6        0    0.0000
     98 H          62.2495  182.6389  141.6576 H         6        0    0.0000
     99 H          62.4840  184.1264  142.5775 H         6        0    0.0000
    100 H          63.7692  181.4036  142.9373 H         6        0    0.0000
    101 H          63.2320  183.5311  145.0595 H         6        0    0.0000
    102 H          63.4088  181.7965  145.2987 H         6        0    0.0000
    103 H          65.8647  182.3681  143.7125 H         6        0    0.0000
    104 H          65.1785  184.0071  143.7378 H         6        0    0.0000
    105 H          65.5856  182.1893  141.3016 H         6        0    0.0000
    106 H          66.7067  184.1875  140.3003 H         6        0    0.0000
    107 H          67.5227  183.6545  141.7657 H         6        0    0.0000
    108 C          66.4438  185.5193  142.0049 C.3       7        0    0.0000
    109 C          66.7111  186.6626  141.0155 C.3       7        0    0.0000
    110 H          65.4057  185.6045  142.3511 H         7        0    0.0000
    111 H          67.0788  185.6049  142.8944 H         7        0    0.0000
    112 H          67.7861  186.8280  140.8781 H         7        0    0.0000
    113 H          66.3118  186.3665  140.0370 H         7        0    0.0000
    114 C          66.0134  188.0134  141.3991 C.3       8        0    0.0000
    115 C          66.5067  189.2220  140.5907 C.3       8        0    0.0000
    116 H          66.2385  188.1969  142.4575 H         8        0    0.0000
    117 H          64.9253  187.9012  141.3250 H         8        0    0.0000
    118 H          66.8807  188.8564  139.6258 H         8        0    0.0000
    119 H          65.6863  189.9139  140.3670 H         8        0    0.0000
    120 C          67.6865  190.0023  141.2673 C.3       9        0    0.0000
    121 C          67.6840  191.5102  140.9782 C.3       9        0    0.0000
    122 H          67.5784  189.8632  142.3506 H         9        0    0.0000
    123 H          68.6419  189.5439  140.9863 H         9        0    0.0000
    124 H          68.1143  191.7283  139.9937 H         9        0    0.0000
    125 H          66.6406  191.8492  140.9466 H         9        0    0.0000
    126 C          68.4063  192.3700  142.0727 C.3      10        0    0.0000
    127 C          69.1526  193.5905  141.5153 C.3      10        0    0.0000
    128 H          69.1407  191.7139  142.5572 H        10        0    0.0000
    129 H          67.6873  192.6616  142.8473 H        10        0    0.0000
    130 H          69.5800  193.3134  140.5431 H        10        0    0.0000
    131 H          68.4678  194.4263  141.3298 H        10        0    0.0000
    132 C          72.2314  191.1575  143.9563 C.3      11        0    0.0000
    133 C          70.9272  191.7942  143.4968 C.3      11        0    0.0000
    134 C          71.4044  193.0006  142.6817 C.3      11        0    0.0000
    135 C          70.3444  194.0731  142.4127 C.3      11        0    0.0000
    136 C          72.6807  193.4914  143.3927 C.3      11        0    0.0000
    137 C          73.0748  192.3676  144.3710 C.3      11        0    0.0000
    138 C          74.5781  192.1063  144.5056 C.3      11        0    0.0000
    139 H          72.0762  190.4607  144.7857 H        11        0    0.0000
    140 H          72.6851  190.6037  143.1270 H        11        0    0.0000
    141 H          70.3249  191.1049  142.8969 H        11        0    0.0000
    142 H          70.3346  192.0938  144.3682 H        11        0    0.0000
    143 H          71.7178  192.6176  141.6987 H        11        0    0.0000
    144 H          69.9435  194.4282  143.3695 H        11        0    0.0000
    145 H          70.8210  194.9353  141.9314 H        11        0    0.0000
    146 H          72.5272  194.4230  143.9479 H        11        0    0.0000
    147 H          73.4571  193.6998  142.6486 H        11        0    0.0000
    148 H          72.7212  192.6768  145.3662 H        11        0    0.0000
    149 H          74.7732  191.6285  145.4729 H        11        0    0.0000
    150 H          74.8883  191.3924  143.7333 H        11        0    0.0000
    151 C          73.4971  196.5890  144.6903 C.3      12        0    0.0000
    152 C          73.6310  195.0782  144.8984 C.3      12        0    0.0000
    153 C          74.6749  194.5945  143.8831 C.3      12        0    0.0000
    154 C          75.4629  193.3837  144.3906 C.3      12        0    0.0000
    155 C          75.5210  195.8467  143.6302 C.3      12        0    0.0000
    156 C          74.4655  196.9552  143.5580 C.3      12        0    0.0000
    157 C          75.0204  198.3750  143.7032 C.3      12        0    0.0000
    158 H          72.4694  196.8681  144.4339 H        12        0    0.0000
    159 H          73.7525  197.1097  145.6210 H        12        0    0.0000
    160 H          72.6734  194.5674  144.7507 H        12        0    0.0000
    161 H          73.9503  194.8784  145.9283 H        12        0    0.0000
    162 H          74.1513  194.3311  142.9525 H        12        0    0.0000
    163 H          75.8778  193.6107  145.3800 H        12        0    0.0000
    164 H          76.3140  193.1800  143.7303 H        12        0    0.0000
    165 H          76.0978  195.7702  142.7031 H        12        0    0.0000
    166 H          76.2195  196.0227  144.4579 H        12        0    0.0000
    167 H          73.9266  196.8648  142.6036 H        12        0    0.0000
    168 H          74.8297  198.7564  144.7131 H        12        0    0.0000
    169 H          74.4949  199.0417  143.0090 H        12        0    0.0000
    170 C          76.5425  198.4483  143.4016 C.3      13        0    0.0000
    171 C          77.2831  199.5370  144.1912 C.3      13        0    0.0000
    172 H          76.9680  197.4760  143.6811 H        13        0    0.0000
    173 H          76.7003  198.5609  142.3226 H        13        0    0.0000
    174 H          76.9940  200.5398  143.8554 H        13        0    0.0000
    175 H          76.9812  199.4594  145.2436 H        13        0    0.0000
    176 C          80.4416  202.5649  143.2115 C.3      14        0    0.0000
    177 C          79.1464  201.8809  143.6463 C.3      14        0    0.0000
    178 C          79.5515  200.7024  144.5486 C.3      14        0    0.0000
    179 C          78.8446  199.3981  144.1570 C.3      14        0    0.0000
    180 C          81.0832  200.6396  144.4458 C.3      14        0    0.0000
    181 C          81.5205  202.0870  144.1868 C.3      14        0    0.0000
    182 C          81.5766  202.9646  145.4505 C.3      14        0    0.0000
    183 H          80.6969  202.2299  142.1980 H        14        0    0.0000
    184 H          80.3399  203.6542  143.1758 H        14        0    0.0000
    185 H          78.5671  201.5682  142.7708 H        14        0    0.0000
    186 H          78.5206  202.5800  144.2136 H        14        0    0.0000
    187 H          79.2799  200.9603  145.5820 H        14        0    0.0000
    188 H          79.1571  198.5819  144.8186 H        14        0    0.0000
    189 H          79.1449  199.1146  143.1411 H        14        0    0.0000
    190 H          81.5374  200.2075  145.3428 H        14        0    0.0000
    191 H          81.3825  200.0162  143.5931 H        14        0    0.0000
    192 H          82.4998  202.1033  143.6916 H        14        0    0.0000
    193 H          80.9373  202.5612  146.2432 H        14        0    0.0000
    194 H          81.1895  203.9631  145.2139 H        14        0    0.0000
    195 C          83.0276  203.1261  145.9854 C.3      15        0    0.0000
    196 C          83.4099  204.5739  146.3248 C.3      15        0    0.0000
    197 H          83.0941  202.5318  146.9057 H        15        0    0.0000
    198 H          83.7349  202.6830  145.2745 H        15        0    0.0000
    199 H          82.7657  205.2898  145.8009 H        15        0    0.0000
    200 H          83.2416  204.7277  147.3984 H        15        0    0.0000
    201 C          85.8332  205.0205  142.4965 C.3      16        0    0.0000
    202 C          84.6945  204.8827  143.5059 C.3      16        0    0.0000
    203 C          85.1007  205.7016  144.7434 C.3      16        0    0.0000
    204 C          84.9148  204.9169  146.0488 C.3      16        0    0.0000
    205 C          86.5512  206.1288  144.4709 C.3      16        0    0.0000
    206 C          86.6503  206.2353  142.9438 C.3      16        0    0.0000
    207 C          86.0871  207.5462  142.3651 C.3      16        0    0.0000
    208 H          86.4630  204.1231  142.5473 H        16        0    0.0000
    209 H          85.4650  205.0991  141.4688 H        16        0    0.0000
    210 H          84.5122  203.8269  143.7342 H        16        0    0.0000
    211 H          83.7655  205.2865  143.0865 H        16        0    0.0000
    212 H          84.4702  206.6015  144.7738 H        16        0    0.0000
    213 H          85.3258  205.4810  146.8941 H        16        0    0.0000
    214 H          85.4790  203.9783  145.9904 H        16        0    0.0000
    215 H          86.8080  207.0606  144.9842 H        16        0    0.0000
    216 H          87.2481  205.3570  144.8228 H        16        0    0.0000
    217 H          87.6934  206.1175  142.6234 H        16        0    0.0000
    218 H          85.0206  207.6541  142.5901 H        16        0    0.0000
    219 H          86.1761  207.5258  141.2722 H        16        0    0.0000
    220 C          89.0668  209.1408  145.9233 C.3      17        0    0.0000
    221 C          88.5779  209.6399  144.5611 C.3      17        0    0.0000
    222 C          87.9961  208.4180  143.8382 C.3      17        0    0.0000
    223 C          86.8565  208.7928  142.8866 C.3      17        0    0.0000
    224 C          87.5881  207.4936  144.9901 C.3      17        0    0.0000
    225 C          88.7599  207.6381  145.9668 C.3      17        0    0.0000
    226 C          88.4715  207.1438  147.3870 C.3      17        0    0.0000
    227 H          90.1378  209.3270  146.0569 H        17        0    0.0000
    228 H          88.5413  209.6809  146.7200 H        17        0    0.0000
    229 H          89.3935  210.0870  143.9825 H        17        0    0.0000
    230 H          87.8194  210.4181  144.7081 H        17        0    0.0000
    231 H          88.8069  207.9365  143.2723 H        17        0    0.0000
    232 H          87.2669  209.3345  142.0260 H        17        0    0.0000
    233 H          86.1548  209.4733  143.3830 H        17        0    0.0000
    234 H          87.4581  206.4588  144.6576 H        17        0    0.0000
    235 H          86.6499  207.8290  145.4497 H        17        0    0.0000
    236 H          89.6267  207.0994  145.5569 H        17        0    0.0000
    237 H          87.7637  206.3070  147.3620 H        17        0    0.0000
    238 H          87.9915  207.9468  147.9592 H        17        0    0.0000
    239 C          92.6605  208.9247  148.8081 C.3      18        0    0.0000
    240 C          91.1764  208.8431  148.4425 C.3      18        0    0.0000
    241 C          90.9824  207.5187  147.6826 C.3      18        0    0.0000
    242 C          89.7615  206.7078  148.1344 C.3      18        0    0.0000
    243 C          92.2969  206.7608  147.8943 C.3      18        0    0.0000
    244 C          93.3664  207.8561  147.9663 C.3      18        0    0.0000
    245 C          93.7842  208.3618  146.5725 C.3      18        0    0.0000
    246 H          93.0600  209.9334  148.6666 H        18        0    0.0000
    247 H          92.7762  208.6792  149.8716 H        18        0    0.0000
    248 H          90.5631  208.9080  149.3481 H        18        0    0.0000
    249 H          90.8949  209.6855  147.7999 H        18        0    0.0000
    250 H          90.8884  207.7464  146.6112 H        18        0    0.0000
    251 H          89.9374  205.6443  147.9335 H        18        0    0.0000
    252 H          89.6150  206.8068  149.2161 H        18        0    0.0000
    253 H          92.4848  206.0349  147.0965 H        18        0    0.0000
    254 H          92.2722  206.2108  148.8439 H        18        0    0.0000
    255 H          94.2486  207.4747  148.4960 H        18        0    0.0000
    256 H          92.9102  208.6480  145.9769 H        18        0    0.0000
    257 H          94.2897  207.5548  146.0290 H        18        0    0.0000
    258 C          96.1770  209.6011  150.0957 C.3      19        0    0.0000
    259 C          95.0851  209.0546  149.1726 C.3      19        0    0.0000
    260 C          94.8459  210.1247  148.0924 C.3      19        0    0.0000
    261 C          94.7616  209.5693  146.6653 C.3      19        0    0.0000
    262 C          96.0059  211.1101  148.2673 C.3      19        0    0.0000
    263 C          96.3027  211.0935  149.7707 C.3      19        0    0.0000
    264 C          95.3240  211.9723  150.5725 C.3      19        0    0.0000
    265 H          95.9611  209.3951  151.1484 H        19        0    0.0000
    266 H          97.1241  209.1001  149.8577 H        19        0    0.0000
    267 H          95.3952  208.0903  148.7552 H        19        0    0.0000
    268 H          94.1608  208.8815  149.7359 H        19        0    0.0000
    269 H          93.9111  210.6522  148.3305 H        19        0    0.0000
    270 H          94.4071  210.3567  145.9895 H        19        0    0.0000
    271 H          95.7550  209.2705  146.3114 H        19        0    0.0000
    272 H          95.7556  212.1086  147.8944 H        19        0    0.0000
    273 H          96.8891  210.7621  147.7162 H        19        0    0.0000
    274 H          97.3300  211.4369  149.9467 H        19        0    0.0000
    275 H          94.4684  211.3880  150.9289 H        19        0    0.0000
    276 H          94.9238  212.7586  149.9214 H        19        0    0.0000
    277 C          96.0214  212.6556  151.7844 C.3      20        0    0.0000
    278 C          95.8167  214.1760  151.8461 C.3      20        0    0.0000
    279 H          95.5845  212.2163  152.6904 H        20        0    0.0000
    280 H          97.0864  212.3959  151.7924 H        20        0    0.0000
    281 H          94.8321  214.4621  151.4578 H        20        0    0.0000
    282 H          95.8385  214.4801  152.9004 H        20        0    0.0000
    283 C          98.0311  211.7705  149.7575 C.3      21        0    0.0000
    284 C          96.9355  212.8355  149.7603 C.3      21        0    0.0000
    285 C          97.6312  214.1832  150.0189 C.3      21        0    0.0000
    286 C          96.9328  214.9993  151.1144 C.3      21        0    0.0000
    287 C          99.0872  213.8156  150.3442 C.3      21        0    0.0000
    288 C          99.3508  212.5217  149.5636 C.3      21        0    0.0000
    289 C          99.6703  212.7382  148.0731 C.3      21        0    0.0000
    290 H          98.0410  211.2691  150.7338 H        21        0    0.0000
    291 H          97.8543  211.0001  149.0004 H        21        0    0.0000
    292 H          96.1737  212.5979  150.5108 H        21        0    0.0000
    293 H          96.4313  212.8629  148.7871 H        21        0    0.0000
    294 H          97.6156  214.7560  149.0809 H        21        0    0.0000
    295 H          96.4997  215.9130  150.6911 H        21        0    0.0000
    296 H          97.6738  215.3155  151.8584 H        21        0    0.0000
    297 H          99.7813  214.6216  150.0869 H        21        0    0.0000
    298 H          99.1989  213.6160  151.4179 H        21        0    0.0000
    299 H         100.1688  211.9583  150.0305 H        21        0    0.0000
    300 H          99.2743  213.6952  147.7167 H        21        0    0.0000
    301 H          99.1791  211.9562  147.4814 H        21        0    0.0000
    302 C         101.9333  215.5090  145.5811 C.3      22        0    0.0000
    303 C         100.9663  214.9213  146.6078 C.3      22        0    0.0000
    304 C         101.8085  214.0587  147.5636 C.3      22        0    0.0000
    305 C         101.1972  212.6693  147.7872 C.3      22        0    0.0000
    306 C         103.2099  214.0321  146.9342 C.3      22        0    0.0000
    307 C         103.3318  215.3663  146.1872 C.3      22        0    0.0000
    308 C         103.6882  216.5631  147.0878 C.3      22        0    0.0000
    309 H         101.8766  214.9153  144.6598 H        22        0    0.0000
    310 H         101.6771  216.5400  145.3175 H        22        0    0.0000
    311 H         100.1752  214.3534  146.1060 H        22        0    0.0000
    312 H         100.4778  215.7247  147.1716 H        22        0    0.0000
    313 H         101.8673  214.5833  148.5277 H        22        0    0.0000
    314 H         101.7047  212.1583  148.6137 H        22        0    0.0000
    315 H         101.3546  212.0561  146.8917 H        22        0    0.0000
    316 H         103.9938  213.8862  147.6838 H        22        0    0.0000
    317 H         103.2878  213.2084  146.2126 H        22        0    0.0000
    318 H         104.0757  215.2838  145.3845 H        22        0    0.0000
    319 H         103.4142  216.3711  148.1307 H        22        0    0.0000
    320 H         103.1110  217.4394  146.7686 H        22        0    0.0000
    321 C         107.6700  218.1694  144.5329 C.3      23        0    0.0000
    322 C         106.5514  218.5359  145.5113 C.3      23        0    0.0000
    323 C         105.6124  217.3184  145.5823 C.3      23        0    0.0000
    324 C         105.1979  216.9264  147.0059 C.3      23        0    0.0000
    325 C         106.3812  216.2009  144.8699 C.3      23        0    0.0000
    326 C         107.1906  216.9202  143.7855 C.3      23        0    0.0000
    327 C         106.3444  217.2471  142.5405 C.3      23        0    0.0000
    328 H         107.9267  219.0058  143.8758 H        23        0    0.0000
    329 H         108.5730  217.9215  145.1055 H        23        0    0.0000
    330 H         106.9774  218.8021  146.4849 H        23        0    0.0000
    331 H         105.9994  219.4110  145.1491 H        23        0    0.0000
    332 H         104.7119  217.5425  144.9927 H        23        0    0.0000
    333 H         105.7830  216.0568  147.3280 H        23        0    0.0000
    334 H         105.4227  217.7381  147.7073 H        23        0    0.0000
    335 H         105.7109  215.4366  144.4635 H        23        0    0.0000
    336 H         107.0665  215.7035  145.5684 H        23        0    0.0000
    337 H         108.0466  216.2991  143.4925 H        23        0    0.0000
    338 H         105.9081  218.2497  142.6105 H        23        0    0.0000
    339 H         105.5089  216.5402  142.4725 H        23        0    0.0000
    340 C         110.2173  219.4206  141.2187 C.3      24        0    0.0000
    341 C         108.7559  219.1662  141.5607 C.3      24        0    0.0000
    342 C         108.6150  217.6544  141.3549 C.3      24        0    0.0000
    343 C         107.1780  217.1389  141.2308 C.3      24        0    0.0000
    344 C         109.5462  217.3172  140.1740 C.3      24        0    0.0000
    345 C         110.4297  218.5629  139.9669 C.3      24        0    0.0000
    346 C         111.8907  218.2831  139.6019 C.3      24        0    0.0000
    347 H         110.4143  220.4804  141.0294 H        24        0    0.0000
    348 H         110.8533  219.0997  142.0510 H        24        0    0.0000
    349 H         108.5178  219.4656  142.5861 H        24        0    0.0000
    350 H         108.1123  219.7363  140.8817 H        24        0    0.0000
    351 H         109.0450  217.1700  142.2446 H        24        0    0.0000
    352 H         106.6644  217.6972  140.4392 H        24        0    0.0000
    353 H         107.1998  216.0897  140.9129 H        24        0    0.0000
    354 H         109.0000  217.0982  139.2501 H        24        0    0.0000
    355 H         110.1261  216.4184  140.4102 H        24        0    0.0000
    356 H         109.9976  219.1197  139.1218 H        24        0    0.0000
    357 H         112.5160  219.1039  139.9728 H        24        0    0.0000
    358 H         112.2222  217.3755  140.1203 H        24        0    0.0000
    359 C         113.5853  221.3387  136.7563 C.3      25        0    0.0000
    360 C         113.4129  220.3000  137.8540 C.3      25        0    0.0000
    361 C         112.2502  219.4483  137.3404 C.3      25        0    0.0000
    362 C         112.1472  218.1092  138.0748 C.3      25        0    0.0000
    363 C         112.5196  219.3347  135.8287 C.3      25        0    0.0000
    364 C         113.4313  220.5247  135.4652 C.3      25        0    0.0000
    365 C         113.0032  221.3288  134.2310 C.3      25        0    0.0000
    366 H         114.5592  221.8351  136.8129 H        25        0    0.0000
    367 H         112.8113  222.1074  136.8549 H        25        0    0.0000
    368 H         114.3264  219.7017  137.9576 H        25        0    0.0000
    369 H         113.1929  220.7599  138.8223 H        25        0    0.0000
    370 H         111.3190  220.0162  137.4811 H        25        0    0.0000
    371 H         111.3450  217.5006  137.6408 H        25        0    0.0000
    372 H         113.0785  217.5474  137.9360 H        25        0    0.0000
    373 H         113.0404  218.3996  135.5877 H        25        0    0.0000
    374 H         111.5790  219.3270  135.2679 H        25        0    0.0000
    375 H         114.4201  220.1025  135.2319 H        25        0    0.0000
    376 H         113.3433  222.3651  134.3430 H        25        0    0.0000
    377 H         111.9079  221.3605  134.1894 H        25        0    0.0000
    378 C         114.9341  223.8222  131.3048 C.3      26        0    0.0000
    379 C         113.9125  223.2504  132.2908 C.3      26        0    0.0000
    380 C         113.5553  221.8407  131.7864 C.3      26        0    0.0000
    381 C         113.5366  220.7673  132.8817 C.3      26        0    0.0000
    382 C         114.5961  221.5484  130.7008 C.3      26        0    0.0000
    383 C         114.8906  222.9141  130.0710 C.3      26        0    0.0000
    384 C         113.8174  223.3332  129.0483 C.3      26        0    0.0000
    385 H         114.7413  224.8765  131.0841 H        26        0    0.0000
    386 H         115.9321  223.7659  131.7579 H        26        0    0.0000
    387 H         114.3304  223.2469  133.3036 H        26        0    0.0000
    388 H         113.0128  223.8764  132.3139 H        26        0    0.0000
    389 H         112.5665  221.8858  131.3080 H        26        0    0.0000
    390 H         112.8885  219.9401  132.5685 H        26        0    0.0000
    391 H         114.5394  220.3486  133.0246 H        26        0    0.0000
    392 H         114.2349  220.8139  129.9737 H        26        0    0.0000
    393 H         115.5139  221.1470  131.1496 H        26        0    0.0000
    394 H         115.8722  222.8893  129.5810 H        26        0    0.0000
    395 H         113.0332  223.9344  129.5215 H        26        0    0.0000
    396 H         113.3315  222.4376  128.6432 H        26        0    0.0000
    397 C         114.4312  224.1301  127.8609 C.3      27        0    0.0000
    398 C         113.7523  223.8594  126.5106 C.3      27        0    0.0000
    399 H         114.3079  225.1949  128.0966 H        27        0    0.0000
    400 H         115.5103  223.9436  127.8093 H        27        0    0.0000
    401 H         112.7222  224.2346  126.4998 H        27        0    0.0000
    402 H         114.2972  224.4166  125.7378 H        27        0    0.0000
    403 C         111.1771  221.6869  123.3988 C.3      28        0    0.0000
    404 C         112.0489  222.6676  124.1680 C.3      28        0    0.0000
    405 C         112.4789  221.8703  125.4059 C.3      28        0    0.0000
    406 C         113.7703  222.3520  126.0793 C.3      28        0    0.0000
    407 C         112.4711  220.3900  124.9721 C.3      28        0    0.0000
    408 C         111.9485  220.3714  123.5240 C.3      28        0    0.0000
    409 C         111.0832  219.1591  123.1712 C.3      28        0    0.0000
    410 H         110.1874  221.6114  123.8657 H        28        0    0.0000
    411 H         111.0418  221.9897  122.3560 H        28        0    0.0000
    412 H         112.9031  222.9617  123.5487 H        28        0    0.0000
    413 H         111.5017  223.5766  124.4369 H        28        0    0.0000
    414 H         111.6796  221.9823  126.1537 H        28        0    0.0000
    415 H         113.9603  221.7356  126.9661 H        28        0    0.0000
    416 H         114.6127  222.1885  125.3969 H        28        0    0.0000
    417 H         111.8086  219.8259  125.6404 H        28        0    0.0000
    418 H         113.4580  219.9193  125.0330 H        28        0    0.0000
    419 H         112.8137  220.4139  122.8465 H        28        0    0.0000
    420 H         110.2624  219.0579  123.8911 H        28        0    0.0000
    421 H         110.6222  219.3166  122.1888 H        28        0    0.0000
    422 C         110.0475  214.6540  122.1863 C.3      29        0    0.0000
    423 C         110.1834  215.8956  123.0566 C.3      29        0    0.0000
    424 C         111.2442  216.7171  122.3166 C.3      29        0    0.0000
    425 C         111.8977  217.8356  123.1338 C.3      29        0    0.0000
    426 C         112.2132  215.6806  121.7148 C.3      29        0    0.0000
    427 C         111.5018  214.3190  121.8392 C.3      29        0    0.0000
    428 C         111.6924  213.3639  120.6570 C.3      29        0    0.0000
    429 H         109.5523  213.8349  122.7170 H        29        0    0.0000
    430 H         109.4550  214.8896  121.2954 H        29        0    0.0000
    431 H         109.2360  216.4355  123.1494 H        29        0    0.0000
    432 H         110.5114  215.6088  124.0617 H        29        0    0.0000
    433 H         110.7370  217.2042  121.4700 H        29        0    0.0000
    434 H         112.0492  217.4861  124.1620 H        29        0    0.0000
    435 H         112.8923  218.0457  122.7228 H        29        0    0.0000
    436 H         113.1738  215.6410  122.2396 H        29        0    0.0000
    437 H         112.4390  215.9498  120.6774 H        29        0    0.0000
    438 H         111.9322  213.8170  122.7190 H        29        0    0.0000
    439 H         111.2727  212.3848  120.9166 H        29        0    0.0000
    440 H         111.1184  213.7355  119.7999 H        29        0    0.0000
    441 C         114.5112  214.9639  123.2615 C.3      30        0    0.0000
    442 C         113.4681  214.7735  122.1710 C.3      30        0    0.0000
    443 C         114.1627  213.8218  121.1948 C.3      30        0    0.0000
    444 C         113.1761  213.1729  120.2209 C.3      30        0    0.0000
    445 C         114.9054  212.8338  122.1128 C.3      30        0    0.0000
    446 C         115.0769  213.5529  123.4667 C.3      30        0    0.0000
    447 C         116.4861  213.4934  124.0697 C.3      30        0    0.0000
    448 H         114.0729  215.3662  124.1802 H        30        0    0.0000
    449 H         115.2754  215.6695  122.9180 H        30        0    0.0000
    450 H         112.5609  214.3198  122.5883 H        30        0    0.0000
    451 H         113.1914  215.7212  121.6989 H        30        0    0.0000
    452 H         114.9123  214.3949  120.6298 H        30        0    0.0000
    453 H         113.3124  213.5847  119.2139 H        30        0    0.0000
    454 H         113.3875  212.0991  120.1528 H        30        0    0.0000
    455 H         114.3204  211.9185  122.2665 H        30        0    0.0000
    456 H         115.8571  212.5299  121.6642 H        30        0    0.0000
    457 H         114.4133  213.0414  124.1798 H        30        0    0.0000
    458 H         116.5014  214.0701  125.0022 H        30        0    0.0000
    459 H         117.1872  213.9853  123.3848 H        30        0    0.0000
    460 C         120.5404  211.0984  125.3135 C.3      31        0    0.0000
    461 C         119.1107  210.6895  124.9933 C.3      31        0    0.0000
    462 C         118.3233  211.9983  125.1347 C.3      31        0    0.0000
    463 C         117.0007  212.0541  124.3598 C.3      31        0    0.0000
    464 C         119.3265  213.1254  124.8138 C.3      31        0    0.0000
    465 C         120.6849  212.4371  124.5866 C.3      31        0    0.0000
    466 C         121.8962  213.2331  125.0786 C.3      31        0    0.0000
    467 H         120.6671  211.2202  126.3961 H        31        0    0.0000
    468 H         121.2662  210.3576  124.9646 H        31        0    0.0000
    469 H         119.0642  210.2872  123.9756 H        31        0    0.0000
    470 H         118.7444  209.9163  125.6759 H        31        0    0.0000
    471 H         118.0633  212.1034  126.1986 H        31        0    0.0000
    472 H         117.1246  211.5270  123.4062 H        31        0    0.0000
    473 H         116.2328  211.5097  124.9220 H        31        0    0.0000
    474 H         119.3696  213.8175  125.6640 H        31        0    0.0000
    475 H         119.0418  213.7173  123.9376 H        31        0    0.0000
    476 H         120.7914  212.2350  123.5108 H        31        0    0.0000
    477 H         122.6589  213.2856  124.2927 H        31        0    0.0000
    478 H         121.5903  214.2648  125.2896 H        31        0    0.0000
    479 C         122.5262  212.6267  126.3638 C.3      32        0    0.0000
    480 C         123.9408  212.0656  126.1601 C.3      32        0    0.0000
    481 H         122.5846  213.4377  127.1011 H        32        0    0.0000
    482 H         121.8534  211.8696  126.7833 H        32        0    0.0000
    483 H         124.2524  212.1401  125.1117 H        32        0    0.0000
    484 H         124.6389  212.6834  126.7395 H        32        0    0.0000
    485 C         120.6781  209.3233  126.8204 C.3      33        0    0.0000
    486 C         121.6285  210.3265  126.1686 C.3      33        0    0.0000
    487 C         123.0159  209.6624  126.1358 C.3      33        0    0.0000
    488 C         124.1193  210.5904  126.6608 C.3      33        0    0.0000
    489 C         122.8490  208.3675  126.9458 C.3      33        0    0.0000
    490 C         121.3818  207.9657  126.7485 C.3      33        0    0.0000
    491 C         121.0986  207.2460  125.4172 C.3      33        0    0.0000
    492 H         120.5359  209.6012  127.8726 H        33        0    0.0000
    493 H         119.6902  209.3262  126.3491 H        33        0    0.0000
    494 H         121.6217  211.2730  126.7202 H        33        0    0.0000
    495 H         121.3025  210.5477  125.1455 H        33        0    0.0000
    496 H         123.2379  209.3970  125.0925 H        33        0    0.0000
    497 H         125.1055  210.2163  126.3627 H        33        0    0.0000
    498 H         124.0996  210.5920  127.7573 H        33        0    0.0000
    499 H         123.5532  207.5919  126.6295 H        33        0    0.0000
    500 H         123.0283  208.5593  128.0118 H        33        0    0.0000
    501 H         121.0481  207.3319  127.5801 H        33        0    0.0000
    502 H         121.0919  207.9502  124.5783 H        33        0    0.0000
    503 H         120.0993  206.7957  125.4559 H        33        0    0.0000
    504 C         123.3781  205.2081  128.5780 C.3      34        0    0.0000
    505 C         122.3511  205.8399  127.6508 C.3      34        0    0.0000
    506 C         123.0832  205.8840  126.3079 C.3      34        0    0.0000
    507 C         122.1256  206.1129  125.1359 C.3      34        0    0.0000
    508 C         123.8474  204.5481  126.2636 C.3      34        0    0.0000
    509 C         123.9847  204.0842  127.7284 C.3      34        0    0.0000
    510 C         125.3896  203.6322  128.1466 C.3      34        0    0.0000
    511 H         122.9195  204.8252  129.4951 H        34        0    0.0000
    512 H         124.1234  205.9581  128.8641 H        34        0    0.0000
    513 H         121.4545  205.2110  127.5924 H        34        0    0.0000
    514 H         122.0499  206.8355  127.9908 H        34        0    0.0000
    515 H         123.8200  206.6997  126.3440 H        34        0    0.0000
    516 H         122.6904  206.3547  124.2277 H        34        0    0.0000
    517 H         121.5785  205.1855  124.9286 H        34        0    0.0000
    518 H         123.2892  203.7901  125.7001 H        34        0    0.0000
    519 H         124.8118  204.6710  125.7597 H        34        0    0.0000
    520 H         123.3307  203.2069  127.8421 H        34        0    0.0000
    521 H         125.4505  203.6184  129.2413 H        34        0    0.0000
    522 H         126.1196  204.3739  127.8009 H        34        0    0.0000
    523 C         126.7452  200.1015  130.5669 C.3      35        0    0.0000
    524 C         126.1958  201.4029  129.9767 C.3      35        0    0.0000
    525 C         126.7536  201.4982  128.5505 C.3      35        0    0.0000
    526 C         125.8037  202.2349  127.6021 C.3      35        0    0.0000
    527 C         127.0167  200.0346  128.1810 C.3      35        0    0.0000
    528 C         127.6121  199.4647  129.4728 C.3      35        0    0.0000
    529 C         127.6189  197.9355  129.5519 C.3      35        0    0.0000
    530 H         127.3313  200.2890  131.4729 H        35        0    0.0000
    531 H         125.9110  199.4479  130.8491 H        35        0    0.0000
    532 H         126.4947  202.2708  130.5742 H        35        0    0.0000
    533 H         125.0996  201.3699  129.9775 H        35        0    0.0000
    534 H         127.7166  202.0276  128.5940 H        35        0    0.0000
    535 H         124.8976  201.6341  127.4585 H        35        0    0.0000
    536 H         126.2661  202.3504  126.6148 H        35        0    0.0000
    537 H         127.7080  199.9437  127.3372 H        35        0    0.0000
    538 H         126.0829  199.5215  127.9190 H        35        0    0.0000
    539 H         128.6380  199.8451  129.5838 H        35        0    0.0000
    540 H         126.5936  197.5539  129.6226 H        35        0    0.0000
    541 H         128.1364  197.6227  130.4667 H        35        0    0.0000
    542 C         131.9433  197.3603  127.1579 C.3      36        0    0.0000
    543 C         130.4522  197.3716  126.8517 C.3      36        0    0.0000
    544 C         129.8227  197.6123  128.2277 C.3      36        0    0.0000
    545 C         128.3303  197.2840  128.3345 C.3      36        0    0.0000
    546 C         130.7378  196.8777  129.2268 C.3      36        0    0.0000
    547 C         132.0215  196.5342  128.4460 C.3      36        0    0.0000
    548 C         133.3287  196.6663  129.2334 C.3      36        0    0.0000
    549 H         132.5240  196.9118  126.3458 H        36        0    0.0000
    550 H         132.2988  198.3862  127.3040 H        36        0    0.0000
    551 H         130.1878  198.1558  126.1356 H        36        0    0.0000
    552 H         130.1547  196.4072  126.4254 H        36        0    0.0000
    553 H         129.9219  198.6876  128.4401 H        36        0    0.0000
    554 H         127.8258  197.6083  127.4166 H        36        0    0.0000
    555 H         128.2061  196.1962  128.3947 H        36        0    0.0000
    556 H         130.2898  195.9577  129.6174 H        36        0    0.0000
    557 H         130.9257  197.5215  130.0928 H        36        0    0.0000
    558 H         131.9392  195.4769  128.1522 H        36        0    0.0000
    559 H         134.1715  196.4459  128.5676 H        36        0    0.0000
    560 H         133.4477  197.7066  129.5585 H        36        0    0.0000
    561 C         134.1719  192.3410  129.1900 C.3      37        0    0.0000
    562 C         133.6608  193.7456  128.8603 C.3      37        0    0.0000
    563 C         133.0220  194.2952  130.1484 C.3      37        0    0.0000
    564 C         133.4209  195.7381  130.4816 C.3      37        0    0.0000
    565 C         133.4475  193.3058  131.2380 C.3      37        0    0.0000
    566 C         133.5220  191.9526  130.5226 C.3      37        0    0.0000
    567 C         132.1366  191.3006  130.3531 C.3      37        0    0.0000
    568 H         133.9727  191.6342  128.3790 H        37        0    0.0000
    569 H         135.2610  192.3829  129.3197 H        37        0    0.0000
    570 H         134.4848  194.3681  128.4947 H        37        0    0.0000
    571 H         132.9101  193.7009  128.0625 H        37        0    0.0000
    572 H         131.9292  194.2377  130.0431 H        37        0    0.0000
    573 H         132.7518  196.1300  131.2569 H        37        0    0.0000
    574 H         134.4364  195.7693  130.8930 H        37        0    0.0000
    575 H         132.7516  193.3022  132.0831 H        37        0    0.0000
    576 H         134.4398  193.5691  131.6267 H        37        0    0.0000
    577 H         134.1783  191.2753  131.0837 H        37        0    0.0000
    578 H         132.1260  190.6089  129.5035 H        37        0    0.0000
    579 H         131.3924  192.0773  130.1409 H        37        0    0.0000
    580 C         132.4039  191.0429  135.3263 C.3      38        0    0.0000
    581 C         131.4427  191.1295  134.1507 C.3      38        0    0.0000
    582 C         132.3635  191.0374  132.9273 C.3      38        0    0.0000
    583 C         131.6934  190.5437  131.6387 C.3      38        0    0.0000
    584 C         133.5903  190.2241  133.3888 C.3      38        0    0.0000
    585 C         133.3820  189.9503  134.8896 C.3      38        0    0.0000
    586 C         134.6643  189.9559  135.7254 C.3      38        0    0.0000
    587 H         132.9184  192.0013  135.4676 H        38        0    0.0000
    588 H         131.8895  190.7894  136.2583 H        38        0    0.0000
    589 H         130.7322  190.2971  134.1967 H        38        0    0.0000
    590 H         130.8680  192.0609  134.1606 H        38        0    0.0000
    591 H         132.7230  192.0560  132.7185 H        38        0    0.0000
    592 H         131.9116  189.4768  131.5105 H        38        0    0.0000
    593 H         130.6056  190.6312  131.7444 H        38        0    0.0000
    594 H         134.4971  190.8170  133.2158 H        38        0    0.0000
    595 H         133.7155  189.2858  132.8384 H        38        0    0.0000
    596 H         132.8803  188.9772  134.9943 H        38        0    0.0000
    597 H         134.4576  190.3362  136.7327 H        38        0    0.0000
    598 H         135.0232  188.9267  135.8452 H        38        0    0.0000
    599 C         139.3146  189.9073  136.1926 C.3      39        0    0.0000
    600 C         138.3103  190.1929  135.0848 C.3      39        0    0.0000
    601 C         137.1186  190.7813  135.8474 C.3      39        0    0.0000
    602 C         135.7938  190.8061  135.0789 C.3      39        0    0.0000
    603 C         137.0910  190.0348  137.1955 C.3      39        0    0.0000
    604 C         138.4423  189.3006  137.2966 C.3      39        0    0.0000
    605 C         139.0744  189.2698  138.6915 C.3      39        0    0.0000
    606 H         140.1003  189.2195  135.8647 H        39        0    0.0000
    607 H         139.7908  190.8414  136.5102 H        39        0    0.0000
    608 H         138.7085  190.8911  134.3421 H        39        0    0.0000
    609 H         138.0511  189.2607  134.5709 H        39        0    0.0000
    610 H         137.3694  191.8291  136.0715 H        39        0    0.0000
    611 H         135.4489  191.8434  134.9935 H        39        0    0.0000
    612 H         135.9651  190.4460  134.0576 H        39        0    0.0000
    613 H         136.2738  189.3085  137.2633 H        39        0    0.0000
    614 H         136.9345  190.7524  138.0081 H        39        0    0.0000
    615 H         138.2547  188.2533  137.0154 H        39        0    0.0000
    616 H         139.0406  188.2440  139.0772 H        39        0    0.0000
    617 H         140.1336  189.5414  138.6111 H        39        0    0.0000
    618 C         138.8702  190.5117  143.3930 C.3      40        0    0.0000
    619 C         139.5240  190.2062  142.0431 C.3      40        0    0.0000
    620 C         138.4200  189.6268  141.1405 C.3      40        0    0.0000
    621 C         138.3921  190.2158  139.7247 C.3      40        0    0.0000
    622 C         137.1208  189.8915  141.9082 C.3      40        0    0.0000
    623 C         137.5180  189.7905  143.3849 C.3      40        0    0.0000
    624 C         137.6072  188.3314  143.8708 C.3      40        0    0.0000
    625 H         139.5154  190.2310  144.2309 H        40        0    0.0000
    626 H         138.7004  191.5936  143.4663 H        40        0    0.0000
    627 H         139.9768  191.1151  141.6317 H        40        0    0.0000
    628 H         140.3279  189.4711  142.1663 H        40        0    0.0000
    629 H         138.5628  188.5386  141.0762 H        40        0    0.0000
    630 H         137.3513  190.3738  139.4176 H        40        0    0.0000
    631 H         138.8805  191.1969  139.7085 H        40        0    0.0000
    632 H         136.3300  189.1867  141.6314 H        40        0    0.0000
    633 H         136.7518  190.9035  141.6971 H        40        0    0.0000
    634 H         136.7910  190.3363  143.9996 H        40        0    0.0000
    635 H         136.7740  187.7340  143.4844 H        40        0    0.0000
    636 H         137.5361  188.3071  144.9647 H        40        0    0.0000
    637 C         139.5527  185.4208  146.3510 C.3      41        0    0.0000
    638 C         140.1786  186.2055  145.1954 C.3      41        0    0.0000
    639 C         139.1155  186.2761  144.0846 C.3      41        0    0.0000
    640 C         138.9523  187.6664  143.4581 C.3      41        0    0.0000
    641 C         137.8290  185.7838  144.7553 C.3      41        0    0.0000
    642 C         138.3007  184.7463  145.7798 C.3      41        0    0.0000
    643 C         138.5906  183.3763  145.1378 C.3      41        0    0.0000
    644 H         140.2642  184.7221  146.8014 H        41        0    0.0000
    645 H         139.2543  186.1268  147.1366 H        41        0    0.0000
    646 H         140.4972  187.1944  145.5431 H        41        0    0.0000
    647 H         141.0716  185.6898  144.8236 H        41        0    0.0000
    648 H         139.3883  185.5560  143.2999 H        41        0    0.0000
    649 H         139.7751  188.3120  143.7876 H        41        0    0.0000
    650 H         139.0155  187.6040  142.3657 H        41        0    0.0000
    651 H         137.1196  185.3728  144.0297 H        41        0    0.0000
    652 H         137.3290  186.6108  145.2759 H        41        0    0.0000
    653 H         137.5400  184.6294  146.5621 H        41        0    0.0000
    654 H         139.6441  183.2892  144.8496 H        41        0    0.0000
    655 H         137.9996  183.2722  144.2201 H        41        0    0.0000
    656 C         135.2666  183.9036  147.4552 C.3      42        0    0.0000
    657 C         136.0606  183.5620  146.1952 C.3      42        0    0.0000
    658 C         136.7270  182.1989  146.4500 C.3      42        0    0.0000
    659 C         138.2184  182.2023  146.0892 C.3      42        0    0.0000
    660 C         136.4413  181.8941  147.9285 C.3      42        0    0.0000
    661 C         135.1060  182.5892  148.2233 C.3      42        0    0.0000
    662 C         133.8685  181.8022  147.7549 C.3      42        0    0.0000
    663 H         135.8501  184.6077  148.0622 H        42        0    0.0000
    664 H         134.3142  184.3899  147.2223 H        42        0    0.0000
    665 H         136.7829  184.3549  145.9723 H        42        0    0.0000
    666 H         135.3882  183.4870  145.3324 H        42        0    0.0000
    667 H         136.2109  181.4507  145.8318 H        42        0    0.0000
    668 H         138.5007  181.2492  145.6271 H        42        0    0.0000
    669 H         138.8124  182.2978  147.0060 H        42        0    0.0000
    670 H         136.4193  180.8185  148.1290 H        42        0    0.0000
    671 H         137.2216  182.3312  148.5652 H        42        0    0.0000
    672 H         135.0169  182.7972  149.2972 H        42        0    0.0000
    673 H         133.8601  181.6861  146.6658 H        42        0    0.0000
    674 H         132.9634  182.3635  148.0169 H        42        0    0.0000
    675 C         133.7774  180.4029  148.4269 C.3      43        0    0.0000
    676 C         134.7848  179.3814  147.8800 C.3      43        0    0.0000
    677 H         133.9869  180.5498  149.4942 H        43        0    0.0000
    678 H         132.7501  180.0262  148.3582 H        43        0    0.0000
    679 H         134.4141  178.3559  147.9929 H        43        0    0.0000
    680 H         134.8972  179.5575  146.8025 H        43        0    0.0000
    681 C         135.4760  180.0300  152.1992 C.3      44        0    0.0000
    682 C         134.9965  179.8833  150.7618 C.3      44        0    0.0000
    683 C         136.2448  179.3713  150.0357 C.3      44        0    0.0000
    684 C         136.2161  179.4982  148.5095 C.3      44        0    0.0000
    685 C         137.4327  180.0583  150.7374 C.3      44        0    0.0000
    686 C         136.8612  180.6638  152.0343 C.3      44        0    0.0000
    687 C         137.7738  180.5777  153.2615 C.3      44        0    0.0000
    688 H         134.8042  180.6583  152.7921 H        44        0    0.0000
    689 H         135.5277  179.0442  152.6743 H        44        0    0.0000
    690 H         134.1577  179.1852  150.6799 H        44        0    0.0000
    691 H         134.6678  180.8564  150.3803 H        44        0    0.0000
    692 H         136.3249  178.2966  150.2584 H        44        0    0.0000
    693 H         136.6495  180.4636  148.2223 H        44        0    0.0000
    694 H         136.8570  178.7229  148.0733 H        44        0    0.0000
    695 H         137.8845  180.8511  150.1314 H        44        0    0.0000
    696 H         138.2231  179.3231  150.9230 H        44        0    0.0000
    697 H         136.7006  181.7348  151.8390 H        44        0    0.0000
    698 H         138.1115  181.5862  153.5280 H        44        0    0.0000
    699 H         137.1940  180.2041  154.1138 H        44        0    0.0000
    700 C         138.2505  175.9822  152.8270 C.3      45        0    0.0000
    701 C         137.8222  177.4480  152.7189 C.3      45        0    0.0000
    702 C         138.7957  178.2469  153.5952 C.3      45        0    0.0000
    703 C         139.0229  179.6664  153.0679 C.3      45        0    0.0000
    704 C         140.0489  177.3654  153.6164 C.3      45        0    0.0000
    705 C         139.4650  175.9565  153.7643 C.3      45        0    0.0000
    706 C         140.4380  174.8238  153.4253 C.3      45        0    0.0000
    707 H         137.4405  175.3562  153.2166 H        45        0    0.0000
    708 H         138.5046  175.6016  151.8305 H        45        0    0.0000
    709 H         136.7882  177.5883  153.0519 H        45        0    0.0000
    710 H         137.8719  177.7664  151.6707 H        45        0    0.0000
    711 H         138.3819  178.2926  154.6132 H        45        0    0.0000
    712 H         139.2594  179.6215  151.9980 H        45        0    0.0000
    713 H         139.8877  180.1224  153.5638 H        45        0    0.0000
    714 H         140.7150  177.6213  154.4465 H        45        0    0.0000
    715 H         140.6123  177.4609  152.6797 H        45        0    0.0000
    716 H         139.1002  175.8344  154.7946 H        45        0    0.0000
    717 H         140.9603  175.0396  152.4859 H        45        0    0.0000
    718 H         139.8736  173.8969  153.2675 H        45        0    0.0000
    719 C         143.2420  171.2491  154.1826 C.3      46        0    0.0000
    720 C         142.4658  172.4002  153.5613 C.3      46        0    0.0000
    721 C         141.8448  173.1086  154.7719 C.3      46        0    0.0000
    722 C         141.4794  174.5822  154.5522 C.3      46        0    0.0000
    723 C         142.7992  172.8321  155.9518 C.3      46        0    0.0000
    724 C         143.8936  171.8963  155.4065 C.3      46        0    0.0000
    725 C         144.4031  170.8559  156.4069 C.3      46        0    0.0000
    726 H         142.5572  170.4448  154.4777 H        46        0    0.0000
    727 H         143.9815  170.8334  153.4914 H        46        0    0.0000
    728 H         143.1537  173.0504  153.0101 H        46        0    0.0000
    729 H         141.7040  172.0472  152.8591 H        46        0    0.0000
    730 H         140.9035  172.5872  155.0011 H        46        0    0.0000
    731 H         141.0849  174.9942  155.4887 H        46        0    0.0000
    732 H         142.3904  175.1464  154.3201 H        46        0    0.0000
    733 H         142.2354  172.3535  156.7621 H        46        0    0.0000
    734 H         143.2419  173.7428  156.3687 H        46        0    0.0000
    735 H         144.7342  172.5159  155.0617 H        46        0    0.0000
    736 H         143.9419  169.8815  156.2071 H        46        0    0.0000
    737 H         145.4838  170.7255  156.2751 H        46        0    0.0000
    738 C         146.9065  173.5963  159.0029 C.3      47        0    0.0000
    739 C         146.3945  172.4932  158.0873 C.3      47        0    0.0000
    740 C         144.8843  172.5082  158.3456 C.3      47        0    0.0000
    741 C         144.1256  171.2610  157.8819 C.3      47        0    0.0000
    742 C         144.7314  172.8624  159.8378 C.3      47        0    0.0000
    743 C         146.1158  173.3628  160.2944 C.3      47        0    0.0000
    744 C         146.1021  174.5367  161.2783 C.3      47        0    0.0000
    745 H         147.9867  173.5257  159.1637 H        47        0    0.0000
    746 H         146.6917  174.5748  158.5594 H        47        0    0.0000
    747 H         146.6340  172.6893  157.0375 H        47        0    0.0000
    748 H         146.8512  171.5377  158.3678 H        47        0    0.0000
    749 H         144.4716  173.3546  157.7761 H        47        0    0.0000
    750 H         144.3881  170.4192  158.5336 H        47        0    0.0000
    751 H         143.0491  171.4302  158.0041 H        47        0    0.0000
    752 H         144.4317  172.0052  160.4503 H        47        0    0.0000
    753 H         143.9457  173.6164  159.9564 H        47        0    0.0000
    754 H         146.5987  172.5231  160.8167 H        47        0    0.0000
    755 H         147.1178  174.9395  161.3692 H        47        0    0.0000
    756 H         145.4798  175.3409  160.8681 H        47        0    0.0000
    757 C         144.2093  170.7900  161.6880 C.3      48        0    0.0000
    758 C         144.1935  172.3054  161.5578 C.3      48        0    0.0000
    759 C         144.9467  172.7804  162.8067 C.3      48        0    0.0000
    760 C         145.5781  174.1743  162.7004 C.3      48        0    0.0000
    761 C         145.9197  171.6387  163.1664 C.3      48        0    0.0000
    762 C         145.6333  170.5022  162.1681 C.3      48        0    0.0000
    763 C         145.7734  169.0918  162.7462 C.3      48        0    0.0000
    764 H         143.4685  170.4648  162.4286 H        48        0    0.0000
    765 H         143.9847  170.2948  160.7384 H        48        0    0.0000
    766 H         144.7013  172.5986  160.6326 H        48        0    0.0000
    767 H         143.1739  172.7015  161.5199 H        48        0    0.0000
    768 H         144.2117  172.8351  163.6236 H        48        0    0.0000
    769 H         144.8376  174.9243  163.0031 H        48        0    0.0000
    770 H         146.4081  174.2470  163.4132 H        48        0    0.0000
    771 H         145.7281  171.3184  164.1981 H        48        0    0.0000
    772 H         146.9716  171.9396  163.1183 H        48        0    0.0000
    773 H         146.3148  170.6171  161.3126 H        48        0    0.0000
    774 H         145.7665  168.3497  161.9391 H        48        0    0.0000
    775 H         146.7437  169.0010  163.2487 H        48        0    0.0000
    776 C         145.2442  168.7987  166.9936 C.3      49        0    0.0000
    777 C         146.0870  168.3134  165.8111 C.3      49        0    0.0000
    778 C         145.1102  167.7054  164.7987 C.3      49        0    0.0000
    779 C         144.6500  168.7506  163.7651 C.3      49        0    0.0000
    780 C         143.9934  167.1764  165.7076 C.3      49        0    0.0000
    781 C         143.8194  168.2658  166.7689 C.3      49        0    0.0000
    782 C         143.1303  167.7424  168.0342 C.3      49        0    0.0000
    783 H         145.6822  168.4400  167.9320 H        49        0    0.0000
    784 H         145.2360  169.8939  167.0372 H        49        0    0.0000
    785 H         146.7748  167.5343  166.1635 H        49        0    0.0000
    786 H         146.7012  169.1160  165.3901 H        49        0    0.0000
    787 H         145.5918  166.8717  164.2717 H        49        0    0.0000
    788 H         144.3672  169.6730  164.2867 H        49        0    0.0000
    789 H         143.7590  168.4110  163.2262 H        49        0    0.0000
    790 H         144.3196  166.2383  166.1755 H        49        0    0.0000
    791 H         143.0585  166.9704  165.1780 H        49        0    0.0000
    792 H         143.2112  169.0743  166.3394 H        49        0    0.0000
    793 H         142.0732  168.0325  168.0405 H        49        0    0.0000
    794 H         143.5915  168.2018  168.9164 H        49        0    0.0000
    795 C         143.2460  166.1959  168.1583 C.3      50        0    0.0000
    796 C         142.1417  165.5541  169.0104 C.3      50        0    0.0000
    797 H         143.1706  165.7899  167.1414 H        50        0    0.0000
    798 H         144.2423  165.9285  168.5294 H        50        0    0.0000
    799 H         142.1795  165.9104  170.0465 H        50        0    0.0000
    800 H         141.1719  165.8702  168.6052 H        50        0    0.0000
    801 C         144.8880  163.0844  171.4496 C.3      51        0    0.0000
    802 C         144.0909  164.1421  170.7017 C.3      51        0    0.0000
    803 C         143.4232  163.3530  169.5684 C.3      51        0    0.0000
    804 C         142.1514  163.9862  168.9900 C.3      51        0    0.0000
    805 C         143.2630  161.9139  170.1003 C.3      51        0    0.0000
    806 C         143.9263  161.8951  171.4896 C.3      51        0    0.0000
    807 C         144.6401  160.5873  171.8406 C.3      51        0    0.0000
    808 H         145.8020  162.8361  170.8965 H        51        0    0.0000
    809 H         145.1740  163.4193  172.4514 H        51        0    0.0000
    810 H         143.3576  164.5943  171.3781 H        51        0    0.0000
    811 H         144.7321  164.9428  170.3197 H        51        0    0.0000
    812 H         144.1475  163.3030  168.7417 H        51        0    0.0000
    813 H         142.0248  163.6481  167.9546 H        51        0    0.0000
    814 H         141.2823  163.6190  169.5487 H        51        0    0.0000
    815 H         143.7636  161.2214  169.4121 H        51        0    0.0000
    816 H         142.2177  161.5942  170.1665 H        51        0    0.0000
    817 H         143.1520  162.1035  172.2422 H        51        0    0.0000
    818 H         144.2530  159.7677  171.2235 H        51        0    0.0000
    819 H         145.7067  160.6821  171.6047 H        51        0    0.0000
    820 C         142.9480  158.9079  175.9290 C.3      52        0    0.0000
    821 C         142.7854  158.6765  174.4243 C.3      52        0    0.0000
    822 C         143.0172  160.0313  173.7463 C.3      52        0    0.0000
    823 C         144.4925  160.2116  173.3418 C.3      52        0    0.0000
    824 C         142.5274  161.0144  174.8172 C.3      52        0    0.0000
    825 C         143.0426  160.4289  176.1344 C.3      52        0    0.0000
    826 C         142.2688  160.9551  177.3486 C.3      52        0    0.0000
    827 H         142.1008  158.4651  176.4651 H        52        0    0.0000
    828 H         143.8568  158.4190  176.2982 H        52        0    0.0000
    829 H         141.7585  158.3437  174.2268 H        52        0    0.0000
    830 H         143.4528  157.8901  174.0572 H        52        0    0.0000
    831 H         142.3899  160.1103  172.8491 H        52        0    0.0000
    832 H         145.0312  159.2723  173.5158 H        52        0    0.0000
    833 H         144.9835  160.9720  173.9586 H        52        0    0.0000
    834 H         141.4298  161.0371  174.8147 H        52        0    0.0000
    835 H         142.8764  162.0397  174.6628 H        52        0    0.0000
    836 H         144.1027  160.6982  176.2424 H        52        0    0.0000
    837 H         141.1958  160.7660  177.2281 H        52        0    0.0000
    838 H         142.3945  162.0421  177.4171 H        52        0    0.0000
    839 C         142.7650  160.3103  178.6746 C.3      53        0    0.0000
    840 C         141.7990  160.4886  179.8546 C.3      53        0    0.0000
    841 H         143.7113  160.8032  178.9319 H        53        0    0.0000
    842 H         142.9983  159.2524  178.5064 H        53        0    0.0000
    843 H         142.3631  160.9121  180.6954 H        53        0    0.0000
    844 H         141.0058  161.2069  179.6159 H        53        0    0.0000
    845 C         138.8579  158.4324  183.2650 C.3      54        0    0.0000
    846 C         139.1858  158.4145  181.7798 C.3      54        0    0.0000
    847 C         140.4142  159.3221  181.6890 C.3      54        0    0.0000
    848 C         141.1629  159.1494  180.3652 C.3      54        0    0.0000
    849 C         141.2309  158.9592  182.9428 C.3      54        0    0.0000
    850 C         140.2331  158.3301  183.9369 C.3      54        0    0.0000
    851 C         140.3034  158.8706  185.3708 C.3      54        0    0.0000
    852 H         138.2017  157.6035  183.5485 H        54        0    0.0000
    853 H         138.3443  159.3669  183.5152 H        54        0    0.0000
    854 H         139.4229  157.3938  181.4555 H        54        0    0.0000
    855 H         138.3535  158.7825  181.1721 H        54        0    0.0000
    856 H         140.0797  160.3651  181.7876 H        54        0    0.0000
    857 H         141.9498  158.3933  180.4715 H        54        0    0.0000
    858 H         140.4690  158.7761  179.6026 H        54        0    0.0000
    859 H         142.0121  158.2252  182.7087 H        54        0    0.0000
    860 H         141.7370  159.8436  183.3439 H        54        0    0.0000
    861 H         140.4825  157.2602  183.9969 H        54        0    0.0000
    862 H         141.2854  159.3309  185.5323 H        54        0    0.0000
    863 H         140.2314  158.0303  186.0716 H        54        0    0.0000
    864 C         137.4274  160.6936  182.4658 C.3      55        0    0.0000
    865 C         138.4568  159.8830  183.2384 C.3      55        0    0.0000
    866 C         138.6680  160.6996  184.5196 C.3      55        0    0.0000
    867 C         139.1979  159.9074  185.7216 C.3      55        0    0.0000
    868 C         137.3436  161.4543  184.7562 C.3      55        0    0.0000
    869 C         136.4408  161.1210  183.5543 C.3      55        0    0.0000
    870 C         135.5365  162.2677  183.0956 C.3      55        0    0.0000
    871 H         137.9029  161.5644  181.9983 H        55        0    0.0000
    872 H         136.9465  160.1027  181.6802 H        55        0    0.0000
    873 H         138.0561  158.8849  183.4459 H        55        0    0.0000
    874 H         139.3867  159.7597  182.6743 H        55        0    0.0000
    875 H         139.4275  161.4626  184.2927 H        55        0    0.0000
    876 H         139.5981  160.6100  186.4622 H        55        0    0.0000
    877 H         138.3624  159.3857  186.2032 H        55        0    0.0000
    878 H         137.5508  162.5303  184.8105 H        55        0    0.0000
    879 H         136.8537  161.1781  185.6959 H        55        0    0.0000
    880 H         135.8231  160.2509  183.8201 H        55        0    0.0000
    881 H         136.1135  163.1969  183.0188 H        55        0    0.0000
    882 H         135.1565  162.0495  182.0904 H        55        0    0.0000
    883 C         134.3285  162.4922  184.0479 C.3      56        0    0.0000
    884 C         134.6261  163.4369  185.2210 C.3      56        0    0.0000
    885 H         134.0635  161.5102  184.4603 H        56        0    0.0000
    886 H         133.4615  162.8339  183.4706 H        56        0    0.0000
    887 H         135.4339  164.1145  184.9160 H        56        0    0.0000
    888 H         133.7601  164.0671  185.4553 H        56        0    0.0000
    889 C         132.3067  160.3402  185.9796 C.3      57        0    0.0000
    890 C         132.7166  161.7756  186.3179 C.3      57        0    0.0000
    891 C         134.0825  161.6889  187.0222 C.3      57        0    0.0000
    892 C         135.1144  162.7061  186.5195 C.3      57        0    0.0000
    893 C         134.5346  160.2418  186.8020 C.3      57        0    0.0000
    894 C         133.2353  159.4292  186.7900 C.3      57        0    0.0000
    895 C         132.7110  159.1387  188.2090 C.3      57        0    0.0000
    896 H         131.2430  160.1653  186.1668 H        57        0    0.0000
    897 H         132.4775  160.1671  184.9093 H        57        0    0.0000
    898 H         132.7456  162.3820  185.4059 H        57        0    0.0000
    899 H         131.9806  162.2344  186.9885 H        57        0    0.0000
    900 H         133.9248  161.8369  188.1001 H        57        0    0.0000
    901 H         135.2908  163.4589  187.2971 H        57        0    0.0000
    902 H         136.0755  162.2145  186.3295 H        57        0    0.0000
    903 H         135.2367  159.9096  187.5735 H        57        0    0.0000
    904 H         135.0373  160.1421  185.8312 H        57        0    0.0000
    905 H         133.3984  158.4823  186.2599 H        57        0    0.0000
    906 H         132.0717  158.2490  188.2203 H        57        0    0.0000
    907 H         132.0934  159.9790  188.5479 H        57        0    0.0000
    908 C         133.8731  158.9506  189.2269 C.3      58        0    0.0000
    909 C         133.4059  158.6644  190.6612 C.3      58        0    0.0000
    910 H         134.4602  158.0898  188.8819 H        58        0    0.0000
    911 H         134.5403  159.8197  189.1906 H        58        0    0.0000
    912 H         133.9168  157.7894  191.0800 H        58        0    0.0000
    913 H         133.6860  159.5209  191.2878 H        58        0    0.0000
    914 C         130.8620  159.7531  193.6653 C.3      59        0    0.0000
    915 C         131.9842  158.7697  193.3219 C.3      59        0    0.0000
    916 C         131.4656  157.8993  192.1719 C.3      59        0    0.0000
    917 C         131.8543  158.4883  190.8027 C.3      59        0    0.0000
    918 C         129.9566  157.8707  192.4459 C.3      59        0    0.0000
    919 C         129.6216  159.3008  192.8770 C.3      59        0    0.0000
    920 C         128.3069  159.3806  193.6612 C.3      59        0    0.0000
    921 H         130.6916  159.7566  194.7479 H        59        0    0.0000
    922 H         131.1419  160.7730  193.3776 H        59        0    0.0000
    923 H         132.1786  158.1359  194.1965 H        59        0    0.0000
    924 H         132.9208  159.2847  193.0853 H        59        0    0.0000
    925 H         131.8815  156.8870  192.2550 H        59        0    0.0000
    926 H         131.3846  159.4726  190.6874 H        59        0    0.0000
    927 H         131.4810  157.8662  189.9822 H        59        0    0.0000
    928 H         129.7492  157.1684  193.2639 H        59        0    0.0000
    929 H         129.3610  157.5547  191.5842 H        59        0    0.0000
    930 H         129.5381  159.9241  191.9756 H        59        0    0.0000
    931 H         127.4548  159.1959  192.9968 H        59        0    0.0000
    932 H         128.1834  160.3932  194.0629 H        59        0    0.0000
    933 C         126.5143  158.5595  198.1906 C.3      60        0    0.0000
    934 C         127.2180  157.7369  197.1221 C.3      60        0    0.0000
    935 C         127.1928  158.6515  195.8909 C.3      60        0    0.0000
    936 C         128.2752  158.3678  194.8417 C.3      60        0    0.0000
    937 C         127.1667  160.0921  196.4421 C.3      60        0    0.0000
    938 C         127.0851  159.9625  197.9741 C.3      60        0    0.0000
    939 C         126.2449  161.0402  198.6639 C.3      60        0    0.0000
    940 H         125.4296  158.5441  198.0287 H        60        0    0.0000
    941 H         126.7160  158.1815  199.1975 H        60        0    0.0000
    942 H         128.2390  157.5104  197.4477 H        60        0    0.0000
    943 H         126.7076  156.7867  196.9360 H        60        0    0.0000
    944 H         126.2265  158.4897  195.3904 H        60        0    0.0000
    945 H         129.2557  158.3702  195.3325 H        60        0    0.0000
    946 H         128.1281  157.3586  194.4392 H        60        0    0.0000
    947 H         126.2879  160.6119  196.0405 H        60        0    0.0000
    948 H         128.0433  160.6797  196.1499 H        60        0    0.0000
    949 H         128.1089  159.9834  198.3751 H        60        0    0.0000
    950 H         126.8967  161.8078  199.0978 H        60        0    0.0000
    951 H         125.6189  161.5441  197.9180 H        60        0    0.0000
    952 C         124.2233  161.9244  203.0720 C.3      61        0    0.0000
    953 C         124.0185  160.9571  201.9033 C.3      61        0    0.0000
    954 C         124.7952  161.5440  200.7173 C.3      61        0    0.0000
    955 C         125.3268  160.4597  199.7759 C.3      61        0    0.0000
    956 C         125.8793  162.3888  201.3949 C.3      61        0    0.0000
    957 C         125.1152  163.0556  202.5436 C.3      61        0    0.0000
    958 C         126.0033  163.6556  203.6371 C.3      61        0    0.0000
    959 H         123.2686  162.3160  203.4394 H        61        0    0.0000
    960 H         124.6993  161.3942  203.9056 H        61        0    0.0000
    961 H         122.9568  160.8429  201.6595 H        61        0    0.0000
    962 H         124.3968  159.9655  202.1795 H        61        0    0.0000
    963 H         124.1215  162.2152  200.1650 H        61        0    0.0000
    964 H         124.4820  159.9484  199.2990 H        61        0    0.0000
    965 H         125.8767  159.6996  200.3432 H        61        0    0.0000
    966 H         126.3118  163.1249  200.7098 H        61        0    0.0000
    967 H         126.6894  161.7553  201.7773 H        61        0    0.0000
    968 H         124.4649  163.8375  202.1251 H        61        0    0.0000
    969 H         126.9989  163.1973  203.6126 H        61        0    0.0000
    970 H         125.5734  163.4255  204.6194 H        61        0    0.0000
    971 C         126.1406  165.1974  203.5070 C.3      62        0    0.0000
    972 C         125.8811  165.9594  204.8145 C.3      62        0    0.0000
    973 H         127.1736  165.3983  203.1952 H        62        0    0.0000
    974 H         125.4935  165.5591  202.6994 H        62        0    0.0000
    975 H         126.2650  165.4077  205.6806 H        62        0    0.0000
    976 H         126.4366  166.9050  204.7735 H        62        0    0.0000
    977 C         123.4435  167.2086  208.4880 C.3      63        0    0.0000
    978 C         124.5834  166.8349  207.5417 C.3      63        0    0.0000
    979 C         124.2007  167.3782  206.1542 C.3      63        0    0.0000
    980 C         124.3753  166.3288  205.0484 C.3      63        0    0.0000
    981 C         122.7587  167.8832  206.3160 C.3      63        0    0.0000
    982 C         122.6551  168.3160  207.7840 C.3      63        0    0.0000
    983 C         123.2441  169.7086  208.0741 C.3      63        0    0.0000
    984 H         122.7945  166.3341  208.6245 H        63        0    0.0000
    985 H         123.8088  167.4977  209.4785 H        63        0    0.0000
    986 H         124.7436  165.7512  207.5461 H        63        0    0.0000
    987 H         125.5191  167.3001  207.8734 H        63        0    0.0000
    988 H         124.8508  168.2377  205.9377 H        63        0    0.0000
    989 H         123.9330  166.6859  204.1112 H        63        0    0.0000
    990 H         123.8339  165.4165  205.3264 H        63        0    0.0000
    991 H         122.5246  168.6887  205.6130 H        63        0    0.0000
    992 H         122.0467  167.0683  206.1309 H        63        0    0.0000
    993 H         121.6083  168.2906  208.1128 H        63        0    0.0000
    994 H         123.2505  170.3327  207.1741 H        63        0    0.0000
    995 H         124.2896  169.6000  208.3873 H        63        0    0.0000
    996 C         123.6464  174.0052  209.6161 C.3      64        0    0.0000
    997 C         123.5694  172.7071  208.8082 C.3      64        0    0.0000
    998 C         123.2910  171.5867  209.8189 C.3      64        0    0.0000
    999 C         122.4761  170.4425  209.2096 C.3      64        0    0.0000
   1000 C         122.5977  172.3214  210.9711 C.3      64        0    0.0000
   1001 C         123.4115  173.6151  211.0813 C.3      64        0    0.0000
   1002 C         122.7307  174.7310  211.8788 C.3      64        0    0.0000
   1003 H         124.6170  174.4972  209.4915 H        64        0    0.0000
   1004 H         122.8800  174.7035  209.2590 H        64        0    0.0000
   1005 H         124.4997  172.5204  208.2612 H        64        0    0.0000
   1006 H         122.7663  172.7864  208.0657 H        64        0    0.0000
   1007 H         124.2566  171.2021  210.1785 H        64        0    0.0000
   1008 H         121.5424  170.8429  208.7968 H        64        0    0.0000
   1009 H         122.1948  169.7209  209.9854 H        64        0    0.0000
   1010 H         122.6229  171.7420  211.8995 H        64        0    0.0000
   1011 H         121.5499  172.5359  210.7263 H        64        0    0.0000
   1012 H         124.3858  173.3791  211.5335 H        64        0    0.0000
   1013 H         122.2307  175.4324  211.2007 H        64        0    0.0000
   1014 H         123.4920  175.3042  212.4214 H        64        0    0.0000
   1015 C         121.7019  174.1812  212.9046 C.3      65        0    0.0000
   1016 C         121.8514  174.7699  214.3147 C.3      65        0    0.0000
   1017 H         121.8664  173.0980  212.9687 H        65        0    0.0000
   1018 H         120.6851  174.3216  212.5195 H        65        0    0.0000
   1019 H         122.9230  174.8564  214.5358 H        65        0    0.0000
   1020 H         121.4373  175.7836  214.3698 H        65        0    0.0000
   1021 C         120.2326  170.7164  213.7823 C.3      66        0    0.0000
   1022 C         120.5984  172.1915  213.6001 C.3      66        0    0.0000
   1023 C         120.1739  172.9130  214.8918 C.3      66        0    0.0000
   1024 C         121.2262  173.8816  215.4456 C.3      66        0    0.0000
   1025 C         119.8493  171.7814  215.8723 C.3      66        0    0.0000
   1026 C         119.2943  170.6561  214.9925 C.3      66        0    0.0000
   1027 C         117.8148  170.8745  214.6231 C.3      66        0    0.0000
   1028 H         119.8059  170.2870  212.8708 H        66        0    0.0000
   1029 H         121.1462  170.1511  214.0069 H        66        0    0.0000
   1030 H         121.6693  172.2890  213.3904 H        66        0    0.0000
   1031 H         120.0609  172.6149  212.7436 H        66        0    0.0000
   1032 H         119.2455  173.4657  214.6890 H        66        0    0.0000
   1033 H         120.7589  174.5404  216.1871 H        66        0    0.0000
   1034 H         122.0185  173.3303  215.9649 H        66        0    0.0000
   1035 H         119.1461  172.1005  216.6484 H        66        0    0.0000
   1036 H         120.7628  171.4368  216.3740 H        66        0    0.0000
   1037 H         119.4031  169.6954  215.5118 H        66        0    0.0000
   1038 H         117.3884  169.9815  214.1529 H        66        0    0.0000
   1039 H         117.7387  171.6871  213.8910 H        66        0    0.0000
   1040 C         120.1955  170.9936  217.5782 C.3      67        0    0.0000
   1041 C         119.1674  171.9363  216.9547 C.3      67        0    0.0000
   1042 C         117.7898  171.2815  217.1557 C.3      67        0    0.0000
   1043 C         116.9602  171.2601  215.8652 C.3      67        0    0.0000
   1044 C         118.0984  169.8881  217.7248 C.3      67        0    0.0000
   1045 C         119.4087  170.0616  218.5033 C.3      67        0    0.0000
   1046 C         119.2324  170.6673  219.9077 C.3      67        0    0.0000
   1047 H         120.6630  170.4012  216.7813 H        67        0    0.0000
   1048 H         120.9965  171.5376  218.0886 H        67        0    0.0000
   1049 H         119.4043  172.1163  215.9003 H        67        0    0.0000
   1050 H         119.1895  172.9089  217.4602 H        67        0    0.0000
   1051 H         117.2499  171.8600  217.9187 H        67        0    0.0000
   1052 H         116.4879  172.2354  215.6997 H        67        0    0.0000
   1053 H         116.1493  170.5291  215.9681 H        67        0    0.0000
   1054 H         117.2792  169.5062  218.3419 H        67        0    0.0000
   1055 H         118.2577  169.1704  216.9095 H        67        0    0.0000
   1056 H         119.9289  169.0989  218.5875 H        67        0    0.0000
   1057 H         120.0698  170.4031  220.5625 H        67        0    0.0000
   1058 H         118.3297  170.2498  220.3701 H        67        0    0.0000
   1059 C         119.0773  172.2138  219.8614 C.3      68        0    0.0000
   1060 C         119.1123  172.8859  221.2415 C.3      68        0    0.0000
   1061 H         119.9201  172.5993  219.2735 H        68        0    0.0000
   1062 H         118.1656  172.4774  219.3125 H        68        0    0.0000
   1063 H         120.1385  173.1304  221.5401 H        68        0    0.0000
   1064 H         118.5710  173.8380  221.1703 H        68        0    0.0000
   1065 C         121.0553  172.6429  224.2361 C.3      69        0    0.0000
   1066 C         119.7373  171.9245  224.5374 C.3      69        0    0.0000
   1067 C         118.6453  172.6729  223.7651 C.3      69        0    0.0000
   1068 C         118.4168  172.0533  222.3735 C.3      69        0    0.0000
   1069 C         119.1936  174.1053  223.7404 C.3      69        0    0.0000
   1070 C         120.6928  173.9338  223.4831 C.3      69        0    0.0000
   1071 C         121.5018  175.1648  223.9072 C.3      69        0    0.0000
   1072 H         121.5911  172.8405  225.1715 H        69        0    0.0000
   1073 H         121.7046  172.0134  223.6169 H        69        0    0.0000
   1074 H         119.5335  171.9961  225.6133 H        69        0    0.0000
   1075 H         119.7869  170.8589  224.2913 H        69        0    0.0000
   1076 H         117.7035  172.6411  224.3279 H        69        0    0.0000
   1077 H         117.3404  172.0220  222.1654 H        69        0    0.0000
   1078 H         118.7722  171.0180  222.3363 H        69        0    0.0000
   1079 H         119.0269  174.5750  224.7186 H        69        0    0.0000
   1080 H         118.7210  174.7421  222.9867 H        69        0    0.0000
   1081 H         120.8426  173.7610  222.4081 H        69        0    0.0000
   1082 H         121.3335  175.9914  223.2073 H        69        0    0.0000
   1083 H         122.5717  174.9283  223.8687 H        69        0    0.0000
   1084 C         117.9005  174.0063  226.4952 C.3      70        0    0.0000
   1085 C         118.7770  174.5714  225.3862 C.3      70        0    0.0000
   1086 C         120.1412  174.7153  226.0687 C.3      70        0    0.0000
   1087 C         121.1434  175.6236  225.3499 C.3      70        0    0.0000
   1088 C         119.8265  175.0970  227.5284 C.3      70        0    0.0000
   1089 C         118.3200  174.8314  227.7162 C.3      70        0    0.0000
   1090 C         117.9166  174.2481  229.0739 C.3      70        0    0.0000
   1091 H         116.8351  174.1167  226.2705 H        70        0    0.0000
   1092 H         118.1117  172.9393  226.6264 H        70        0    0.0000
   1093 H         118.8192  173.9052  224.5189 H        70        0    0.0000
   1094 H         118.3781  175.5365  225.0548 H        70        0    0.0000
   1095 H         120.5921  173.7117  226.0948 H        70        0    0.0000
   1096 H         120.7365  176.6408  225.3051 H        70        0    0.0000
   1097 H         122.0652  175.6788  225.9411 H        70        0    0.0000
   1098 H         120.0433  176.1476  227.7498 H        70        0    0.0000
   1099 H         120.4510  174.5036  228.2047 H        70        0    0.0000
   1100 H         117.8145  175.8053  227.6320 H        70        0    0.0000
   1101 H         117.0045  174.7477  229.4214 H        70        0    0.0000
   1102 H         117.6667  173.1879  228.9485 H        70        0    0.0000
   1103 C         119.0096  174.3777  230.1768 C.3      71        0    0.0000
   1104 C         118.6053  173.7747  231.5298 C.3      71        0    0.0000
   1105 H         119.1876  175.4509  230.3220 H        71        0    0.0000
   1106 H         119.9520  173.9499  229.8151 H        71        0    0.0000
   1107 H         117.6151  174.1667  231.7949 H        71        0    0.0000
   1108 H         118.5044  172.6849  231.4666 H        71        0    0.0000
   1109 C         119.5703  174.1486  232.7078 C.3      72        0    0.0000
   1110 C         119.0460  173.7491  234.0945 C.3      72        0    0.0000
   1111 H         119.6855  175.2399  232.6888 H        72        0    0.0000
   1112 H         120.5640  173.7252  232.5199 H        72        0    0.0000
   1113 H         118.5754  172.7612  234.0089 H        72        0    0.0000
   1114 H         119.8650  173.6446  234.8157 H        72        0    0.0000
   1115 C         118.9609  174.3122  238.2812 C.3      73        0    0.0000
   1116 C         118.8999  173.7905  236.8433 C.3      73        0    0.0000
   1117 C         117.7309  174.5208  236.1693 C.3      73        0    0.0000
   1118 C         117.9574  174.7209  234.6682 C.3      73        0    0.0000
   1119 C         117.6190  175.8183  236.9767 C.3      73        0    0.0000
   1120 C         117.8261  175.3361  238.4163 C.3      73        0    0.0000
   1121 C         118.1586  176.4445  239.4190 C.3      73        0    0.0000
   1122 H         118.8454  173.5000  239.0070 H        73        0    0.0000
   1123 H         119.9399  174.7722  238.4615 H        73        0    0.0000
   1124 H         118.7526  172.7054  236.8171 H        73        0    0.0000
   1125 H         119.8499  174.0015  236.3378 H        73        0    0.0000
   1126 H         116.8185  173.9281  236.3297 H        73        0    0.0000
   1127 H         118.2799  175.7529  234.4852 H        73        0    0.0000
   1128 H         117.0183  174.5813  234.1201 H        73        0    0.0000
   1129 H         116.6455  176.3006  236.8430 H        73        0    0.0000
   1130 H         118.4004  176.5312  236.6849 H        73        0    0.0000
   1131 H         116.9207  174.8031  238.7413 H        73        0    0.0000
   1132 H         117.2411  176.9429  239.7530 H        73        0    0.0000
   1133 H         118.7711  177.2081  238.9245 H        73        0    0.0000
   1134 C         119.3672  178.6604  243.2417 C.3      74        0    0.0000
   1135 C         119.2425  178.2179  241.7904 C.3      74        0    0.0000
   1136 C         118.7752  176.7641  241.9155 C.3      74        0    0.0000
   1137 C         118.9360  175.9110  240.6535 C.3      74        0    0.0000
   1138 C         119.4726  176.2209  243.1780 C.3      74        0    0.0000
   1139 C         120.0356  177.4546  243.9103 C.3      74        0    0.0000
   1140 C         119.9423  177.4149  245.4387 C.3      74        0    0.0000
   1141 H         119.9667  179.5706  243.3414 H        74        0    0.0000
   1142 H         118.3724  178.8613  243.6541 H        74        0    0.0000
   1143 H         118.5276  178.8333  241.2354 H        74        0    0.0000
   1144 H         120.2162  178.2967  241.2946 H        74        0    0.0000
   1145 H         117.6978  176.7933  242.1376 H        74        0    0.0000
   1146 H         120.0004  175.8461  240.3984 H        74        0    0.0000
   1147 H         118.6002  174.8892  240.8664 H        74        0    0.0000
   1148 H         120.2889  175.5274  242.9484 H        74        0    0.0000
   1149 H         118.7514  175.6597  243.7818 H        74        0    0.0000
   1150 H         121.1069  177.5066  243.6640 H        74        0    0.0000
   1151 H         120.9451  177.5464  245.8621 H        74        0    0.0000
   1152 H         119.3409  178.2646  245.7832 H        74        0    0.0000
   1153 C         119.3264  176.1020  246.0087 C.3      75        0    0.0000
   1154 C         120.3366  174.9566  246.1674 C.3      75        0    0.0000
   1155 H         118.9277  176.3444  247.0021 H        75        0    0.0000
   1156 H         118.4715  175.7975  245.3937 H        75        0    0.0000
   1157 H         121.3295  175.3350  246.4374 H        75        0    0.0000
   1158 H         120.0051  174.3233  247.0002 H        75        0    0.0000
   1159 H         120.4149  174.3108  245.2928 H        75        0    0.0000
   1160 H          50.0954  165.1758  146.1319 H         0        0    0.0000
@<TRIPOS>BOND
     1     1     2      1
     2     1     6      1
     3     1     8      1
     4     1     9      1
     5     2     3      1
     6     2    10      1
     7     2    11      1
     8     3     4      1
     9     3     5      1
    10     3    12      1
    11     4    13      1
    12     4    14      1
    13     4  1160      H
    14     5     6      1
    15     5    15      1
    16     5    16      1
    17     6     7      1
    18     6    17      1
    19     7    18      1
    20     7    19      1
    21     7    23      1
    22    20    21      1
    23    20    25      1
    24    20    27      1
    25    20    28      1
    26    21    22      1
    27    21    29      1
    28    21    30      1
    29    22    23      1
    30    22    24      1
    31    22    31      1
    32    23    32      1
    33    23    33      1
    34    24    25      1
    35    24    34      1
    36    24    35      1
    37    25    26      1
    38    25    36      1
    39    26    37      1
    40    26    38      1
    41    26    39      1
    42    39    40      1
    43    39    41      1
    44    39    42      1
    45    40    43      1
    46    40    44      1
    47    40    48      1
    48    45    46      1
    49    45    50      1
    50    45    52      1
    51    45    53      1
    52    46    47      1
    53    46    54      1
    54    46    55      1
    55    47    48      1
    56    47    49      1
    57    47    56      1
    58    48    57      1
    59    48    58      1
    60    49    50      1
    61    49    59      1
    62    49    60      1
    63    50    51      1
    64    50    61      1
    65    51    62      1
    66    51    63      1
    67    51    64      1
    68    64    65      1
    69    64    66      1
    70    64    67      1
    71    65    68      1
    72    65    69      1
    73    65    73      1
    74    70    71      1
    75    70    75      1
    76    70    77      1
    77    70    78      1
    78    71    72      1
    79    71    79      1
    80    71    80      1
    81    72    73      1
    82    72    74      1
    83    72    81      1
    84    73    82      1
    85    73    83      1
    86    74    75      1
    87    74    84      1
    88    74    85      1
    89    75    76      1
    90    75    86      1
    91    76    87      1
    92    76    88      1
    93    76    92      1
    94    89    90      1
    95    89    94      1
    96    89    96      1
    97    89    97      1
    98    90    91      1
    99    90    98      1
   100    90    99      1
   101    91    92      1
   102    91    93      1
   103    91   100      1
   104    92   101      1
   105    92   102      1
   106    93    94      1
   107    93   103      1
   108    93   104      1
   109    94    95      1
   110    94   105      1
   111    95   106      1
   112    95   107      1
   113    95   108      1
   114   108   109      1
   115   108   110      1
   116   108   111      1
   117   109   112      1
   118   109   113      1
   119   109   114      1
   120   114   115      1
   121   114   116      1
   122   114   117      1
   123   115   118      1
   124   115   119      1
   125   115   120      1
   126   120   121      1
   127   120   122      1
   128   120   123      1
   129   121   124      1
   130   121   125      1
   131   121   126      1
   132   126   127      1
   133   126   128      1
   134   126   129      1
   135   127   130      1
   136   127   131      1
   137   127   135      1
   138   132   133      1
   139   132   137      1
   140   132   139      1
   141   132   140      1
   142   133   134      1
   143   133   141      1
   144   133   142      1
   145   134   135      1
   146   134   136      1
   147   134   143      1
   148   135   144      1
   149   135   145      1
   150   136   137      1
   151   136   146      1
   152   136   147      1
   153   137   138      1
   154   137   148      1
   155   138   149      1
   156   138   150      1
   157   138   154      1
   158   151   152      1
   159   151   156      1
   160   151   158      1
   161   151   159      1
   162   152   153      1
   163   152   160      1
   164   152   161      1
   165   153   154      1
   166   153   155      1
   167   153   162      1
   168   154   163      1
   169   154   164      1
   170   155   156      1
   171   155   165      1
   172   155   166      1
   173   156   157      1
   174   156   167      1
   175   157   168      1
   176   157   169      1
   177   157   170      1
   178   170   171      1
   179   170   172      1
   180   170   173      1
   181   171   174      1
   182   171   175      1
   183   171   179      1
   184   176   177      1
   185   176   181      1
   186   176   183      1
   187   176   184      1
   188   177   178      1
   189   177   185      1
   190   177   186      1
   191   178   179      1
   192   178   180      1
   193   178   187      1
   194   179   188      1
   195   179   189      1
   196   180   181      1
   197   180   190      1
   198   180   191      1
   199   181   182      1
   200   181   192      1
   201   182   193      1
   202   182   194      1
   203   182   195      1
   204   195   196      1
   205   195   197      1
   206   195   198      1
   207   196   199      1
   208   196   200      1
   209   196   204      1
   210   201   202      1
   211   201   206      1
   212   201   208      1
   213   201   209      1
   214   202   203      1
   215   202   210      1
   216   202   211      1
   217   203   204      1
   218   203   205      1
   219   203   212      1
   220   204   213      1
   221   204   214      1
   222   205   206      1
   223   205   215      1
   224   205   216      1
   225   206   207      1
   226   206   217      1
   227   207   218      1
   228   207   219      1
   229   207   223      1
   230   220   221      1
   231   220   225      1
   232   220   227      1
   233   220   228      1
   234   221   222      1
   235   221   229      1
   236   221   230      1
   237   222   223      1
   238   222   224      1
   239   222   231      1
   240   223   232      1
   241   223   233      1
   242   224   225      1
   243   224   234      1
   244   224   235      1
   245   225   226      1
   246   225   236      1
   247   226   237      1
   248   226   238      1
   249   226   242      1
   250   239   240      1
   251   239   244      1
   252   239   246      1
   253   239   247      1
   254   240   241      1
   255   240   248      1
   256   240   249      1
   257   241   242      1
   258   241   243      1
   259   241   250      1
   260   242   251      1
   261   242   252      1
   262   243   244      1
   263   243   253      1
   264   243   254      1
   265   244   245      1
   266   244   255      1
   267   245   256      1
   268   245   257      1
   269   245   261      1
   270   258   259      1
   271   258   263      1
   272   258   265      1
   273   258   266      1
   274   259   260      1
   275   259   267      1
   276   259   268      1
   277   260   261      1
   278   260   262      1
   279   260   269      1
   280   261   270      1
   281   261   271      1
   282   262   263      1
   283   262   272      1
   284   262   273      1
   285   263   264      1
   286   263   274      1
   287   264   275      1
   288   264   276      1
   289   264   277      1
   290   277   278      1
   291   277   279      1
   292   277   280      1
   293   278   281      1
   294   278   282      1
   295   278   286      1
   296   283   284      1
   297   283   288      1
   298   283   290      1
   299   283   291      1
   300   284   285      1
   301   284   292      1
   302   284   293      1
   303   285   286      1
   304   285   287      1
   305   285   294      1
   306   286   295      1
   307   286   296      1
   308   287   288      1
   309   287   297      1
   310   287   298      1
   311   288   289      1
   312   288   299      1
   313   289   300      1
   314   289   301      1
   315   289   305      1
   316   302   303      1
   317   302   307      1
   318   302   309      1
   319   302   310      1
   320   303   304      1
   321   303   311      1
   322   303   312      1
   323   304   305      1
   324   304   306      1
   325   304   313      1
   326   305   314      1
   327   305   315      1
   328   306   307      1
   329   306   316      1
   330   306   317      1
   331   307   308      1
   332   307   318      1
   333   308   319      1
   334   308   320      1
   335   308   324      1
   336   321   322      1
   337   321   326      1
   338   321   328      1
   339   321   329      1
   340   322   323      1
   341   322   330      1
   342   322   331      1
   343   323   324      1
   344   323   325      1
   345   323   332      1
   346   324   333      1
   347   324   334      1
   348   325   326      1
   349   325   335      1
   350   325   336      1
   351   326   327      1
   352   326   337      1
   353   327   338      1
   354   327   339      1
   355   327   343      1
   356   340   341      1
   357   340   345      1
   358   340   347      1
   359   340   348      1
   360   341   342      1
   361   341   349      1
   362   341   350      1
   363   342   343      1
   364   342   344      1
   365   342   351      1
   366   343   352      1
   367   343   353      1
   368   344   345      1
   369   344   354      1
   370   344   355      1
   371   345   346      1
   372   345   356      1
   373   346   357      1
   374   346   358      1
   375   346   362      1
   376   359   360      1
   377   359   364      1
   378   359   366      1
   379   359   367      1
   380   360   361      1
   381   360   368      1
   382   360   369      1
   383   361   362      1
   384   361   363      1
   385   361   370      1
   386   362   371      1
   387   362   372      1
   388   363   364      1
   389   363   373      1
   390   363   374      1
   391   364   365      1
   392   364   375      1
   393   365   376      1
   394   365   377      1
   395   365   381      1
   396   378   379      1
   397   378   383      1
   398   378   385      1
   399   378   386      1
   400   379   380      1
   401   379   387      1
   402   379   388      1
   403   380   381      1
   404   380   382      1
   405   380   389      1
   406   381   390      1
   407   381   391      1
   408   382   383      1
   409   382   392      1
   410   382   393      1
   411   383   384      1
   412   383   394      1
   413   384   395      1
   414   384   396      1
   415   384   397      1
   416   397   398      1
   417   397   399      1
   418   397   400      1
   419   398   401      1
   420   398   402      1
   421   398   406      1
   422   403   404      1
   423   403   408      1
   424   403   410      1
   425   403   411      1
   426   404   405      1
   427   404   412      1
   428   404   413      1
   429   405   406      1
   430   405   407      1
   431   405   414      1
   432   406   415      1
   433   406   416      1
   434   407   408      1
   435   407   417      1
   436   407   418      1
   437   408   409      1
   438   408   419      1
   439   409   420      1
   440   409   421      1
   441   409   425      1
   442   422   423      1
   443   422   427      1
   444   422   429      1
   445   422   430      1
   446   423   424      1
   447   423   431      1
   448   423   432      1
   449   424   425      1
   450   424   426      1
   451   424   433      1
   452   425   434      1
   453   425   435      1
   454   426   427      1
   455   426   436      1
   456   426   437      1
   457   427   428      1
   458   427   438      1
   459   428   439      1
   460   428   440      1
   461   428   444      1
   462   441   442      1
   463   441   446      1
   464   441   448      1
   465   441   449      1
   466   442   443      1
   467   442   450      1
   468   442   451      1
   469   443   444      1
   470   443   445      1
   471   443   452      1
   472   444   453      1
   473   444   454      1
   474   445   446      1
   475   445   455      1
   476   445   456      1
   477   446   447      1
   478   446   457      1
   479   447   458      1
   480   447   459      1
   481   447   463      1
   482   460   461      1
   483   460   465      1
   484   460   467      1
   485   460   468      1
   486   461   462      1
   487   461   469      1
   488   461   470      1
   489   462   463      1
   490   462   464      1
   491   462   471      1
   492   463   472      1
   493   463   473      1
   494   464   465      1
   495   464   474      1
   496   464   475      1
   497   465   466      1
   498   465   476      1
   499   466   477      1
   500   466   478      1
   501   466   479      1
   502   479   480      1
   503   479   481      1
   504   479   482      1
   505   480   483      1
   506   480   484      1
   507   480   488      1
   508   485   486      1
   509   485   490      1
   510   485   492      1
   511   485   493      1
   512   486   487      1
   513   486   494      1
   514   486   495      1
   515   487   488      1
   516   487   489      1
   517   487   496      1
   518   488   497      1
   519   488   498      1
   520   489   490      1
   521   489   499      1
   522   489   500      1
   523   490   491      1
   524   490   501      1
   525   491   502      1
   526   491   503      1
   527   491   507      1
   528   504   505      1
   529   504   509      1
   530   504   511      1
   531   504   512      1
   532   505   506      1
   533   505   513      1
   534   505   514      1
   535   506   507      1
   536   506   508      1
   537   506   515      1
   538   507   516      1
   539   507   517      1
   540   508   509      1
   541   508   518      1
   542   508   519      1
   543   509   510      1
   544   509   520      1
   545   510   521      1
   546   510   522      1
   547   510   526      1
   548   523   524      1
   549   523   528      1
   550   523   530      1
   551   523   531      1
   552   524   525      1
   553   524   532      1
   554   524   533      1
   555   525   526      1
   556   525   527      1
   557   525   534      1
   558   526   535      1
   559   526   536      1
   560   527   528      1
   561   527   537      1
   562   527   538      1
   563   528   529      1
   564   528   539      1
   565   529   540      1
   566   529   541      1
   567   529   545      1
   568   542   543      1
   569   542   547      1
   570   542   549      1
   571   542   550      1
   572   543   544      1
   573   543   551      1
   574   543   552      1
   575   544   545      1
   576   544   546      1
   577   544   553      1
   578   545   554      1
   579   545   555      1
   580   546   547      1
   581   546   556      1
   582   546   557      1
   583   547   548      1
   584   547   558      1
   585   548   559      1
   586   548   560      1
   587   548   564      1
   588   561   562      1
   589   561   566      1
   590   561   568      1
   591   561   569      1
   592   562   563      1
   593   562   570      1
   594   562   571      1
   595   563   564      1
   596   563   565      1
   597   563   572      1
   598   564   573      1
   599   564   574      1
   600   565   566      1
   601   565   575      1
   602   565   576      1
   603   566   567      1
   604   566   577      1
   605   567   578      1
   606   567   579      1
   607   567   583      1
   608   580   581      1
   609   580   585      1
   610   580   587      1
   611   580   588      1
   612   581   582      1
   613   581   589      1
   614   581   590      1
   615   582   583      1
   616   582   584      1
   617   582   591      1
   618   583   592      1
   619   583   593      1
   620   584   585      1
   621   584   594      1
   622   584   595      1
   623   585   586      1
   624   585   596      1
   625   586   597      1
   626   586   598      1
   627   586   602      1
   628   599   600      1
   629   599   604      1
   630   599   606      1
   631   599   607      1
   632   600   601      1
   633   600   608      1
   634   600   609      1
   635   601   602      1
   636   601   603      1
   637   601   610      1
   638   602   611      1
   639   602   612      1
   640   603   604      1
   641   603   613      1
   642   603   614      1
   643   604   605      1
   644   604   615      1
   645   605   616      1
   646   605   617      1
   647   605   621      1
   648   618   619      1
   649   618   623      1
   650   618   625      1
   651   618   626      1
   652   619   620      1
   653   619   627      1
   654   619   628      1
   655   620   621      1
   656   620   622      1
   657   620   629      1
   658   621   630      1
   659   621   631      1
   660   622   623      1
   661   622   632      1
   662   622   633      1
   663   623   624      1
   664   623   634      1
   665   624   635      1
   666   624   636      1
   667   624   640      1
   668   637   638      1
   669   637   642      1
   670   637   644      1
   671   637   645      1
   672   638   639      1
   673   638   646      1
   674   638   647      1
   675   639   640      1
   676   639   641      1
   677   639   648      1
   678   640   649      1
   679   640   650      1
   680   641   642      1
   681   641   651      1
   682   641   652      1
   683   642   643      1
   684   642   653      1
   685   643   654      1
   686   643   655      1
   687   643   659      1
   688   656   657      1
   689   656   661      1
   690   656   663      1
   691   656   664      1
   692   657   658      1
   693   657   665      1
   694   657   666      1
   695   658   659      1
   696   658   660      1
   697   658   667      1
   698   659   668      1
   699   659   669      1
   700   660   661      1
   701   660   670      1
   702   660   671      1
   703   661   662      1
   704   661   672      1
   705   662   673      1
   706   662   674      1
   707   662   675      1
   708   675   676      1
   709   675   677      1
   710   675   678      1
   711   676   679      1
   712   676   680      1
   713   676   684      1
   714   681   682      1
   715   681   686      1
   716   681   688      1
   717   681   689      1
   718   682   683      1
   719   682   690      1
   720   682   691      1
   721   683   684      1
   722   683   685      1
   723   683   692      1
   724   684   693      1
   725   684   694      1
   726   685   686      1
   727   685   695      1
   728   685   696      1
   729   686   687      1
   730   686   697      1
   731   687   698      1
   732   687   699      1
   733   687   703      1
   734   700   701      1
   735   700   705      1
   736   700   707      1
   737   700   708      1
   738   701   702      1
   739   701   709      1
   740   701   710      1
   741   702   703      1
   742   702   704      1
   743   702   711      1
   744   703   712      1
   745   703   713      1
   746   704   705      1
   747   704   714      1
   748   704   715      1
   749   705   706      1
   750   705   716      1
   751   706   717      1
   752   706   718      1
   753   706   722      1
   754   719   720      1
   755   719   724      1
   756   719   726      1
   757   719   727      1
   758   720   721      1
   759   720   728      1
   760   720   729      1
   761   721   722      1
   762   721   723      1
   763   721   730      1
   764   722   731      1
   765   722   732      1
   766   723   724      1
   767   723   733      1
   768   723   734      1
   769   724   725      1
   770   724   735      1
   771   725   736      1
   772   725   737      1
   773   725   741      1
   774   738   739      1
   775   738   743      1
   776   738   745      1
   777   738   746      1
   778   739   740      1
   779   739   747      1
   780   739   748      1
   781   740   741      1
   782   740   742      1
   783   740   749      1
   784   741   750      1
   785   741   751      1
   786   742   743      1
   787   742   752      1
   788   742   753      1
   789   743   744      1
   790   743   754      1
   791   744   755      1
   792   744   756      1
   793   744   760      1
   794   757   758      1
   795   757   762      1
   796   757   764      1
   797   757   765      1
   798   758   759      1
   799   758   766      1
   800   758   767      1
   801   759   760      1
   802   759   761      1
   803   759   768      1
   804   760   769      1
   805   760   770      1
   806   761   762      1
   807   761   771      1
   808   761   772      1
   809   762   763      1
   810   762   773      1
   811   763   774      1
   812   763   775      1
   813   763   779      1
   814   776   777      1
   815   776   781      1
   816   776   783      1
   817   776   784      1
   818   777   778      1
   819   777   785      1
   820   777   786      1
   821   778   779      1
   822   778   780      1
   823   778   787      1
   824   779   788      1
   825   779   789      1
   826   780   781      1
   827   780   790      1
   828   780   791      1
   829   781   782      1
   830   781   792      1
   831   782   793      1
   832   782   794      1
   833   782   795      1
   834   795   796      1
   835   795   797      1
   836   795   798      1
   837   796   799      1
   838   796   800      1
   839   796   804      1
   840   801   802      1
   841   801   806      1
   842   801   808      1
   843   801   809      1
   844   802   803      1
   845   802   810      1
   846   802   811      1
   847   803   804      1
   848   803   805      1
   849   803   812      1
   850   804   813      1
   851   804   814      1
   852   805   806      1
   853   805   815      1
   854   805   816      1
   855   806   807      1
   856   806   817      1
   857   807   818      1
   858   807   819      1
   859   807   823      1
   860   820   821      1
   861   820   825      1
   862   820   827      1
   863   820   828      1
   864   821   822      1
   865   821   829      1
   866   821   830      1
   867   822   823      1
   868   822   824      1
   869   822   831      1
   870   823   832      1
   871   823   833      1
   872   824   825      1
   873   824   834      1
   874   824   835      1
   875   825   826      1
   876   825   836      1
   877   826   837      1
   878   826   838      1
   879   826   839      1
   880   839   840      1
   881   839   841      1
   882   839   842      1
   883   840   843      1
   884   840   844      1
   885   840   848      1
   886   845   846      1
   887   845   850      1
   888   845   852      1
   889   845   853      1
   890   846   847      1
   891   846   854      1
   892   846   855      1
   893   847   848      1
   894   847   849      1
   895   847   856      1
   896   848   857      1
   897   848   858      1
   898   849   850      1
   899   849   859      1
   900   849   860      1
   901   850   851      1
   902   850   861      1
   903   851   862      1
   904   851   863      1
   905   851   867      1
   906   864   865      1
   907   864   869      1
   908   864   871      1
   909   864   872      1
   910   865   866      1
   911   865   873      1
   912   865   874      1
   913   866   867      1
   914   866   868      1
   915   866   875      1
   916   867   876      1
   917   867   877      1
   918   868   869      1
   919   868   878      1
   920   868   879      1
   921   869   870      1
   922   869   880      1
   923   870   881      1
   924   870   882      1
   925   870   883      1
   926   883   884      1
   927   883   885      1
   928   883   886      1
   929   884   887      1
   930   884   888      1
   931   884   892      1
   932   889   890      1
   933   889   894      1
   934   889   896      1
   935   889   897      1
   936   890   891      1
   937   890   898      1
   938   890   899      1
   939   891   892      1
   940   891   893      1
   941   891   900      1
   942   892   901      1
   943   892   902      1
   944   893   894      1
   945   893   903      1
   946   893   904      1
   947   894   895      1
   948   894   905      1
   949   895   906      1
   950   895   907      1
   951   895   908      1
   952   908   909      1
   953   908   910      1
   954   908   911      1
   955   909   912      1
   956   909   913      1
   957   909   917      1
   958   914   915      1
   959   914   919      1
   960   914   921      1
   961   914   922      1
   962   915   916      1
   963   915   923      1
   964   915   924      1
   965   916   917      1
   966   916   918      1
   967   916   925      1
   968   917   926      1
   969   917   927      1
   970   918   919      1
   971   918   928      1
   972   918   929      1
   973   919   920      1
   974   919   930      1
   975   920   931      1
   976   920   932      1
   977   920   936      1
   978   933   934      1
   979   933   938      1
   980   933   940      1
   981   933   941      1
   982   934   935      1
   983   934   942      1
   984   934   943      1
   985   935   936      1
   986   935   937      1
   987   935   944      1
   988   936   945      1
   989   936   946      1
   990   937   938      1
   991   937   947      1
   992   937   948      1
   993   938   939      1
   994   938   949      1
   995   939   950      1
   996   939   951      1
   997   939   955      1
   998   952   953      1
   999   952   957      1
  1000   952   959      1
  1001   952   960      1
  1002   953   954      1
  1003   953   961      1
  1004   953   962      1
  1005   954   955      1
  1006   954   956      1
  1007   954   963      1
  1008   955   964      1
  1009   955   965      1
  1010   956   957      1
  1011   956   966      1
  1012   956   967      1
  1013   957   958      1
  1014   957   968      1
  1015   958   969      1
  1016   958   970      1
  1017   958   971      1
  1018   971   972      1
  1019   971   973      1
  1020   971   974      1
  1021   972   975      1
  1022   972   976      1
  1023   972   980      1
  1024   977   978      1
  1025   977   982      1
  1026   977   984      1
  1027   977   985      1
  1028   978   979      1
  1029   978   986      1
  1030   978   987      1
  1031   979   980      1
  1032   979   981      1
  1033   979   988      1
  1034   980   989      1
  1035   980   990      1
  1036   981   982      1
  1037   981   991      1
  1038   981   992      1
  1039   982   983      1
  1040   982   993      1
  1041   983   994      1
  1042   983   995      1
  1043   983   999      1
  1044   996   997      1
  1045   996  1001      1
  1046   996  1003      1
  1047   996  1004      1
  1048   997   998      1
  1049   997  1005      1
  1050   997  1006      1
  1051   998   999      1
  1052   998  1000      1
  1053   998  1007      1
  1054   999  1008      1
  1055   999  1009      1
  1056  1000  1001      1
  1057  1000  1010      1
  1058  1000  1011      1
  1059  1001  1002      1
  1060  1001  1012      1
  1061  1002  1013      1
  1062  1002  1014      1
  1063  1002  1015      1
  1064  1015  1016      1
  1065  1015  1017      1
  1066  1015  1018      1
  1067  1016  1019      1
  1068  1016  1020      1
  1069  1016  1024      1
  1070  1021  1022      1
  1071  1021  1026      1
  1072  1021  1028      1
  1073  1021  1029      1
  1074  1022  1023      1
  1075  1022  1030      1
  1076  1022  1031      1
  1077  1023  1024      1
  1078  1023  1025      1
  1079  1023  1032      1
  1080  1024  1033      1
  1081  1024  1034      1
  1082  1025  1026      1
  1083  1025  1035      1
  1084  1025  1036      1
  1085  1026  1027      1
  1086  1026  1037      1
  1087  1027  1038      1
  1088  1027  1039      1
  1089  1027  1043      1
  1090  1040  1041      1
  1091  1040  1045      1
  1092  1040  1047      1
  1093  1040  1048      1
  1094  1041  1042      1
  1095  1041  1049      1
  1096  1041  1050      1
  1097  1042  1043      1
  1098  1042  1044      1
  1099  1042  1051      1
  1100  1043  1052      1
  1101  1043  1053      1
  1102  1044  1045      1
  1103  1044  1054      1
  1104  1044  1055      1
  1105  1045  1046      1
  1106  1045  1056      1
  1107  1046  1057      1
  1108  1046  1058      1
  1109  1046  1059      1
  1110  1059  1060      1
  1111  1059  1061      1
  1112  1059  1062      1
  1113  1060  1063      1
  1114  1060  1064      1
  1115  1060  1068      1
  1116  1065  1066      1
  1117  1065  1070      1
  1118  1065  1072      1
  1119  1065  1073      1
  1120  1066  1067      1
  1121  1066  1074      1
  1122  1066  1075      1
  1123  1067  1068      1
  1124  1067  1069      1
  1125  1067  1076      1
  1126  1068  1077      1
  1127  1068  1078      1
  1128  1069  1070      1
  1129  1069  1079      1
  1130  1069  1080      1
  1131  1070  1071      1
  1132  1070  1081      1
  1133  1071  1082      1
  1134  1071  1083      1
  1135  1071  1087      1
  1136  1084  1085      1
  1137  1084  1089      1
  1138  1084  1091      1
  1139  1084  1092      1
  1140  1085  1086      1
  1141  1085  1093      1
  1142  1085  1094      1
  1143  1086  1087      1
  1144  1086  1088      1
  1145  1086  1095      1
  1146  1087  1096      1
  1147  1087  1097      1
  1148  1088  1089      1
  1149  1088  1098      1
  1150  1088  1099      1
  1151  1089  1090      1
  1152  1089  1100      1
  1153  1090  1101      1
  1154  1090  1102      1
  1155  1090  1103      1
  1156  1103  1104      1
  1157  1103  1105      1
  1158  1103  1106      1
  1159  1104  1107      1
  1160  1104  1108      1
  1161  1104  1109      1
  1162  1109  1110      1
  1163  1109  1111      1
  1164  1109  1112      1
  1165  1110  1113      1
  1166  1110  1114      1
  1167  1110  1118      1
  1168  1115  1116      1
  1169  1115  1120      1
  1170  1115  1122      1
  1171  1115  1123      1
  1172  1116  1117      1
  1173  1116  1124      1
  1174  1116  1125      1
  1175  1117  1118      1
  1176  1117  1119      1
  1177  1117  1126      1
  1178  1118  1127      1
  1179  1118  1128      1
  1180  1119  1120      1
  1181  1119  1129      1
  1182  1119  1130      1
  1183  1120  1121      1
  1184  1120  1131      1
  1185  1121  1132      1
  1186  1121  1133      1
  1187  1121  1137      1
  1188  1134  1135      1
  1189  1134  1139      1
  1190  1134  1141      1
  1191  1134  1142      1
  1192  1135  1136      1
  1193  1135  1143      1
  1194  1135  1144      1
  1195  1136  1137      1
  1196  1136  1138      1
  1197  1136  1145      1
  1198  1137  1146      1
  1199  1137  1147      1
  1200  1138  1139      1
  1201  1138  1148      1
  1202  1138  1149      1
  1203  1139  1140      1
  1204  1139  1150      1
  1205  1140  1151      1
  1206  1140  1152      1
  1207  1140  1153      1
  1208  1153  1154      1
  1209  1153  1155      1
  1210  1153  1156      1
  1211  1154  1157      1
  1212  1154  1158      1
  1213  1154  1159      H
