###
### Created by PolyChef-cpp17 on Wed Feb 26 21:14:13 2025
###

@<TRIPOS>MOLECULE
NO_INFO
1544 1615 1 0 0
SMALL
USER_CHARGES


@<TRIPOS>ATOM
      1 C         214.1422   95.1868  102.3796 C.3       0        0    0.0000
      2 C         215.5605   94.7502  102.0402 C.3       0        0    0.0000
      3 C         215.3802   94.0033  100.7146 C.3       0        0    0.0000
      4 C         216.5474   93.1000  100.3049 C.3       0        0    0.0000
      5 C         214.0088   93.3084  100.8237 C.3       0        0    0.0000
      6 C         213.3123   93.9435  102.0431 C.3       0        0    0.0000
      7 C         211.8060   94.1788  101.8948 C.3       0        0    0.0000
      8 H         214.0436   95.4749  103.4307 H         0        0    0.0000
      9 H         213.8626   96.0481  101.7630 H         0        0    0.0000
     10 H         216.2385   95.6037  101.9424 H         0        0    0.0000
     11 H         215.9463   94.0982  102.8315 H         0        0    0.0000
     12 H         215.2855   94.7673   99.9283 H         0        0    0.0000
     13 H         216.3429   92.0764  100.6405 H         0        0    0.0000
     14 H         216.6078   93.0665   99.2106 H         0        0    0.0000
     15 H         214.0904   92.2262  100.9713 H         0        0    0.0000
     16 H         213.4507   93.4518   99.8922 H         0        0    0.0000
     17 H         213.4377   93.2402  102.8802 H         0        0    0.0000
     18 H         211.6400   95.1683  101.4526 H         0        0    0.0000
     19 H         211.3964   93.4459  101.1896 H         0        0    0.0000
     20 C         209.6257   97.4124  104.1272 C.3       1        0    0.0000
     21 C         210.5647   96.6288  103.2067 C.3       1        0    0.0000
     22 C         211.0501   95.4083  104.0092 C.3       1        0    0.0000
     23 C         211.0090   94.0875  103.2308 C.3       1        0    0.0000
     24 C         210.1498   95.3833  105.2486 C.3       1        0    0.0000
     25 C         209.8511   96.8582  105.5381 C.3       1        0    0.0000
     26 C         211.0038   97.5554  106.2854 C.3       1        0    0.0000
     27 H         209.7836   98.4921  104.0464 H         1        0    0.0000
     28 H         208.5892   97.2155  103.8247 H         1        0    0.0000
     29 H         210.0410   96.3514  102.2853 H         1        0    0.0000
     30 H         211.4213   97.2490  102.9182 H         1        0    0.0000
     31 H         212.0808   95.6007  104.3399 H         1        0    0.0000
     32 H         211.4474   93.2909  103.8437 H         1        0    0.0000
     33 H         209.9725   93.7963  103.0252 H         1        0    0.0000
     34 H         210.6265   94.8726  106.0915 H         1        0    0.0000
     35 H         209.2121   94.8565  105.0290 H         1        0    0.0000
     36 H         208.9308   96.9378  106.1306 H         1        0    0.0000
     37 H         211.9585   97.4040  105.7697 H         1        0    0.0000
     38 H         211.1082   97.1159  107.2846 H         1        0    0.0000
     39 C         210.7449   99.0808  106.4522 C.3       2        0    0.0000
     40 C         210.9443   99.5945  107.8853 C.3       2        0    0.0000
     41 H         211.4633   99.5970  105.8025 H         2        0    0.0000
     42 H         209.7461   99.3295  106.0746 H         2        0    0.0000
     43 H         211.1262   98.7688  108.5833 H         2        0    0.0000
     44 H         211.8447  100.2218  107.9000 H         2        0    0.0000
     45 C         208.5434  101.3927  105.0295 C.3       3        0    0.0000
     46 C         209.7629  101.1835  105.9306 C.3       3        0    0.0000
     47 C         209.3102  101.5063  107.3659 C.3       3        0    0.0000
     48 C         209.7651  100.4828  108.4136 C.3       3        0    0.0000
     49 C         207.7843  101.6060  107.2717 C.3       3        0    0.0000
     50 C         207.5200  102.1646  105.8694 C.3       3        0    0.0000
     51 C         207.7086  103.6919  105.8002 C.3       3        0    0.0000
     52 H         208.8102  101.8897  104.0919 H         3        0    0.0000
     53 H         208.1264  100.4121  104.7663 H         3        0    0.0000
     54 H         210.1375  100.1596  105.8226 H         3        0    0.0000
     55 H         210.5752  101.8583  105.6360 H         3        0    0.0000
     56 H         209.7010  102.4978  107.6360 H         3        0    0.0000
     57 H         210.1029  101.0101  109.3137 H         3        0    0.0000
     58 H         208.9263   99.8449  108.7151 H         3        0    0.0000
     59 H         207.3646  102.2328  108.0652 H         3        0    0.0000
     60 H         207.3302  100.6106  107.3605 H         3        0    0.0000
     61 H         206.4996  101.9082  105.5575 H         3        0    0.0000
     62 H         207.5207  104.0685  104.7886 H         3        0    0.0000
     63 H         208.7478  103.9418  106.0452 H         3        0    0.0000
     64 C         206.7821  104.4345  106.8062 C.3       4        0    0.0000
     65 C         205.9756  105.5820  106.1816 C.3       4        0    0.0000
     66 H         206.0731  103.6908  107.1923 H         4        0    0.0000
     67 H         207.3705  104.7812  107.6638 H         4        0    0.0000
     68 H         206.5185  106.5322  106.2458 H         4        0    0.0000
     69 H         205.8472  105.3657  105.1132 H         4        0    0.0000
     70 C         204.2963  108.7248  108.1584 C.3       5        0    0.0000
     71 C         205.3405  107.6154  108.3109 C.3       5        0    0.0000
     72 C         204.5813  106.2866  108.2289 C.3       5        0    0.0000
     73 C         204.5383  105.7527  106.7847 C.3       5        0    0.0000
     74 C         203.2116  106.6628  108.8081 C.3       5        0    0.0000
     75 C         202.9179  108.0458  108.2213 C.3       5        0    0.0000
     76 C         201.8686  108.8131  109.0337 C.3       5        0    0.0000
     77 H         204.4315  109.4714  108.9492 H         5        0    0.0000
     78 H         204.4201  109.2414  107.1998 H         5        0    0.0000
     79 H         205.8089  107.7044  109.2993 H         5        0    0.0000
     80 H         206.1405  107.7022  107.5687 H         5        0    0.0000
     81 H         205.0678  105.5402  108.8700 H         5        0    0.0000
     82 H         203.9832  106.4592  106.1558 H         5        0    0.0000
     83 H         204.0033  104.7986  106.7296 H         5        0    0.0000
     84 H         203.2834  106.7213  109.9021 H         5        0    0.0000
     85 H         202.4228  105.9432  108.5698 H         5        0    0.0000
     86 H         202.5492  107.9155  107.1942 H         5        0    0.0000
     87 H         200.9946  109.0383  108.4116 H         5        0    0.0000
     88 H         202.2875  109.7745  109.3537 H         5        0    0.0000
     89 C         199.9978  110.3648  112.8842 C.3       6        0    0.0000
     90 C         200.7424  109.0812  112.5078 C.3       6        0    0.0000
     91 C         200.3161  108.7407  111.0738 C.3       6        0    0.0000
     92 C         201.4194  108.0197  110.2943 C.3       6        0    0.0000
     93 C         199.9128  110.1022  110.4978 C.3       6        0    0.0000
     94 C         199.1525  110.7464  111.6619 C.3       6        0    0.0000
     95 C         198.9591  112.2603  111.5377 C.3       6        0    0.0000
     96 H         199.3669  110.2172  113.7674 H         6        0    0.0000
     97 H         200.7236  111.1489  113.1308 H         6        0    0.0000
     98 H         200.5009  108.2625  113.1942 H         6        0    0.0000
     99 H         201.8234  109.2532  112.5750 H         6        0    0.0000
    100 H         199.4219  108.1025  111.1245 H         6        0    0.0000
    101 H         201.0537  107.0363  109.9754 H         6        0    0.0000
    102 H         202.2865  107.8402  110.9406 H         6        0    0.0000
    103 H         199.2856  109.9997  109.6066 H         6        0    0.0000
    104 H         200.7976  110.6937  110.2312 H         6        0    0.0000
    105 H         198.1730  110.2551  111.7558 H         6        0    0.0000
    106 H         198.8222  112.5412  110.4869 H         6        0    0.0000
    107 H         199.8651  112.7707  111.8859 H         6        0    0.0000
    108 C         197.7524  112.7722  112.3712 C.3       7        0    0.0000
    109 C         197.9670  114.1599  112.9921 C.3       7        0    0.0000
    110 H         196.8975  112.8344  111.6857 H         7        0    0.0000
    111 H         197.4890  112.0302  113.1341 H         7        0    0.0000
    112 H         199.0210  114.3255  113.2442 H         7        0    0.0000
    113 H         197.7020  114.9141  112.2400 H         7        0    0.0000
    114 C         197.0727  114.4406  114.2491 C.3       8        0    0.0000
    115 C         195.7959  115.2360  113.9414 C.3       8        0    0.0000
    116 H         197.6817  115.0307  114.9459 H         8        0    0.0000
    117 H         196.8420  113.4966  114.7566 H         8        0    0.0000
    118 H         195.8918  116.2263  114.4047 H         8        0    0.0000
    119 H         195.6804  115.4038  112.8642 H         8        0    0.0000
    120 C         194.4887  114.5908  114.5189 C.3       9        0    0.0000
    121 C         193.4287  114.2703  113.4553 C.3       9        0    0.0000
    122 H         194.7853  113.6492  114.9985 H         9        0    0.0000
    123 H         194.0794  115.2301  115.3099 H         9        0    0.0000
    124 H         192.7941  115.1404  113.2497 H         9        0    0.0000
    125 H         193.9479  114.0322  112.5181 H         9        0    0.0000
    126 C         192.5314  113.0323  113.8029 C.3      10        0    0.0000
    127 C         191.2553  113.3852  114.5802 C.3      10        0    0.0000
    128 H         193.1388  112.3668  114.4297 H        10        0    0.0000
    129 H         192.2997  112.4753  112.8874 H        10        0    0.0000
    130 H         190.9816  114.4192  114.3339 H        10        0    0.0000
    131 H         190.4127  112.7559  114.2706 H        10        0    0.0000
    132 C         191.5219  110.0248  118.0300 C.3      11        0    0.0000
    133 C         190.7562  111.0613  117.2197 C.3      11        0    0.0000
    134 C         191.8714  111.9545  116.6664 C.3      11        0    0.0000
    135 C         191.4195  113.3194  116.1382 C.3      11        0    0.0000
    136 C         192.9466  111.9919  117.7700 C.3      11        0    0.0000
    137 C         192.5738  110.8686  118.7574 C.3      11        0    0.0000
    138 C         193.7532  110.0867  119.3439 C.3      11        0    0.0000
    139 H         190.8709  109.4886  118.7274 H        11        0    0.0000
    140 H         191.9767  109.2905  117.3560 H        11        0    0.0000
    141 H         190.1642  110.6012  116.4225 H        11        0    0.0000
    142 H         190.0735  111.6130  117.8754 H        11        0    0.0000
    143 H         192.3139  111.4199  115.8123 H        11        0    0.0000
    144 H         190.4635  113.5852  116.6047 H        11        0    0.0000
    145 H         192.1441  114.0816  116.4484 H        11        0    0.0000
    146 H         192.9790  112.9496  118.3005 H        11        0    0.0000
    147 H         193.9363  111.8535  117.3217 H        11        0    0.0000
    148 H         192.0651  111.3501  119.6062 H        11        0    0.0000
    149 H         193.3719  109.1982  119.8610 H        11        0    0.0000
    150 H         194.3873  109.7267  118.5250 H        11        0    0.0000
    151 C         192.5783  113.9660  119.5426 C.3      12        0    0.0000
    152 C         193.4537  112.7912  119.0984 C.3      12        0    0.0000
    153 C         194.2981  112.3981  120.3177 C.3      12        0    0.0000
    154 C         194.6334  110.9042  120.3363 C.3      12        0    0.0000
    155 C         193.4475  112.8764  121.4991 C.3      12        0    0.0000
    156 C         192.9303  114.2339  121.0118 C.3      12        0    0.0000
    157 C         191.7416  114.7856  121.8038 C.3      12        0    0.0000
    158 H         192.7582  114.8542  118.9274 H        12        0    0.0000
    159 H         191.5213  113.6984  119.4255 H        12        0    0.0000
    160 H         194.0913  113.0652  118.2509 H        12        0    0.0000
    161 H         192.8141  111.9634  118.7694 H        12        0    0.0000
    162 H         195.2277  112.9854  120.2944 H        12        0    0.0000
    163 H         194.4762  110.5105  121.3476 H        12        0    0.0000
    164 H         195.6922  110.7492  120.0978 H        12        0    0.0000
    165 H         194.0371  112.9688  122.4167 H        12        0    0.0000
    166 H         192.6170  112.1852  121.6906 H        12        0    0.0000
    167 H         193.7597  114.9556  121.0393 H        12        0    0.0000
    168 H         191.7038  115.8781  121.7213 H        12        0    0.0000
    169 H         191.8759  114.5533  122.8670 H        12        0    0.0000
    170 C         190.3885  114.1845  121.3340 C.3      13        0    0.0000
    171 C         189.1592  114.8192  121.9999 C.3      13        0    0.0000
    172 H         190.3206  114.3632  120.2533 H        13        0    0.0000
    173 H         190.3997  113.0969  121.4717 H        13        0    0.0000
    174 H         188.3803  114.0723  122.1937 H        13        0    0.0000
    175 H         189.4665  115.2127  122.9773 H        13        0    0.0000
    176 C         186.8199  118.9891  122.4926 C.3      14        0    0.0000
    177 C         186.9630  118.0170  121.3225 C.3      14        0    0.0000
    178 C         187.3571  116.6572  121.9245 C.3      14        0    0.0000
    179 C         188.5505  116.0218  121.1989 C.3      14        0    0.0000
    180 C         187.6109  116.9468  123.4119 C.3      14        0    0.0000
    181 C         186.6855  118.1232  123.7478 C.3      14        0    0.0000
    182 C         185.2227  117.7203  124.0091 C.3      14        0    0.0000
    183 H         187.7336  119.5926  122.5662 H        14        0    0.0000
    184 H         185.9849  119.6826  122.3517 H        14        0    0.0000
    185 H         187.6969  118.3929  120.6012 H        14        0    0.0000
    186 H         186.0090  117.9210  120.7907 H        14        0    0.0000
    187 H         186.4896  115.9874  121.8410 H        14        0    0.0000
    188 H         189.3273  116.7727  121.0135 H        14        0    0.0000
    189 H         188.2244  115.6551  120.2181 H        14        0    0.0000
    190 H         187.4319  116.0670  124.0377 H        14        0    0.0000
    191 H         188.6532  117.2542  123.5677 H        14        0    0.0000
    192 H         187.0704  118.6709  124.6175 H        14        0    0.0000
    193 H         185.0975  117.3095  125.0167 H        14        0    0.0000
    194 H         184.9367  116.9257  123.3092 H        14        0    0.0000
    195 C         184.2441  118.9120  123.8089 C.3      15        0    0.0000
    196 C         183.1290  118.6391  122.7894 C.3      15        0    0.0000
    197 H         183.7756  119.1043  124.7826 H        15        0    0.0000
    198 H         184.8095  119.8148  123.5495 H        15        0    0.0000
    199 H         183.5013  118.0592  121.9367 H        15        0    0.0000
    200 H         182.3642  118.0221  123.2784 H        15        0    0.0000
    201 C         180.6020  121.7274  124.9187 C.3      16        0    0.0000
    202 C         181.5785  120.5976  124.5953 C.3      16        0    0.0000
    203 C         182.3569  121.0328  123.3417 C.3      16        0    0.0000
    204 C         182.4063  119.9317  122.2743 C.3      16        0    0.0000
    205 C         181.6628  122.3230  122.8786 C.3      16        0    0.0000
    206 C         181.1121  122.9568  124.1625 C.3      16        0    0.0000
    207 C         182.1582  123.7362  124.9800 C.3      16        0    0.0000
    208 H         179.6082  121.4568  124.5397 H        16        0    0.0000
    209 H         180.5035  121.8903  125.9966 H        16        0    0.0000
    210 H         181.0388  119.6545  124.4561 H        16        0    0.0000
    211 H         182.2759  120.4495  125.4282 H        16        0    0.0000
    212 H         183.3829  121.2783  123.6504 H        16        0    0.0000
    213 H         182.9068  120.2992  121.3709 H        16        0    0.0000
    214 H         181.3836  119.6640  121.9827 H        16        0    0.0000
    215 H         182.3442  122.9822  122.3321 H        16        0    0.0000
    216 H         180.8265  122.0860  122.2081 H        16        0    0.0000
    217 H         180.2706  123.6204  123.9257 H        16        0    0.0000
    218 H         183.0115  123.1013  125.2417 H        16        0    0.0000
    219 H         181.7080  124.0612  125.9259 H        16        0    0.0000
    220 C         179.8365  125.1026  121.7328 C.3      17        0    0.0000
    221 C         180.7298  124.3346  122.7106 C.3      17        0    0.0000
    222 C         182.0214  125.1516  122.8465 C.3      17        0    0.0000
    223 C         182.6628  125.0006  124.2287 C.3      17        0    0.0000
    224 C         181.5705  126.5754  122.5040 C.3      17        0    0.0000
    225 C         180.6256  126.3516  121.3187 C.3      17        0    0.0000
    226 C         179.7117  127.5377  120.9984 C.3      17        0    0.0000
    227 H         179.5811  124.4921  120.8600 H        17        0    0.0000
    228 H         178.8958  125.3686  122.2297 H        17        0    0.0000
    229 H         180.9415  123.3226  122.3489 H        17        0    0.0000
    230 H         180.2151  124.2344  123.6737 H        17        0    0.0000
    231 H         182.7253  124.8110  122.0732 H        17        0    0.0000
    232 H         182.4280  125.8835  124.8351 H        17        0    0.0000
    233 H         183.7547  124.9602  124.1388 H        17        0    0.0000
    234 H         182.4150  127.2190  122.2379 H        17        0    0.0000
    235 H         181.0401  127.0334  123.3483 H        17        0    0.0000
    236 H         181.2271  126.0989  120.4334 H        17        0    0.0000
    237 H         179.1092  127.8013  121.8756 H        17        0    0.0000
    238 H         179.0090  127.2500  120.2072 H        17        0    0.0000
    239 C         177.3370  130.6486  121.0256 C.3      18        0    0.0000
    240 C         178.3576  130.1188  120.0153 C.3      18        0    0.0000
    241 C         179.7150  130.0805  120.7399 C.3      18        0    0.0000
    242 C         180.5066  128.7849  120.5235 C.3      18        0    0.0000
    243 C         179.3679  130.3128  122.2139 C.3      18        0    0.0000
    244 C         178.1497  131.2420  122.1815 C.3      18        0    0.0000
    245 C         178.5399  132.7147  121.9538 C.3      18        0    0.0000
    246 H         176.6396  131.3562  120.5672 H        18        0    0.0000
    247 H         176.7409  129.8065  121.4001 H        18        0    0.0000
    248 H         178.0442  129.1360  119.6462 H        18        0    0.0000
    249 H         178.4176  130.7865  119.1479 H        18        0    0.0000
    250 H         180.3158  130.9332  120.3923 H        18        0    0.0000
    251 H         180.7297  128.6696  119.4561 H        18        0    0.0000
    252 H         181.4691  128.8324  121.0459 H        18        0    0.0000
    253 H         180.2099  130.7350  122.7720 H        18        0    0.0000
    254 H         179.0927  129.3655  122.6955 H        18        0    0.0000
    255 H         177.5938  131.1529  123.1236 H        18        0    0.0000
    256 H         177.8504  133.2036  121.2568 H        18        0    0.0000
    257 H         179.5373  132.7609  121.5005 H        18        0    0.0000
    258 C         176.1587  132.2701  125.8124 C.3      19        0    0.0000
    259 C         176.6858  132.1425  124.3811 C.3      19        0    0.0000
    260 C         177.2079  133.5334  123.9787 C.3      19        0    0.0000
    261 C         178.5770  133.5152  123.2879 C.3      19        0    0.0000
    262 C         177.2257  134.3283  125.2883 C.3      19        0    0.0000
    263 C         176.0458  133.7726  126.0929 C.3      19        0    0.0000
    264 C         174.6978  134.3717  125.6491 C.3      19        0    0.0000
    265 H         175.2212  131.7233  125.9516 H        19        0    0.0000
    266 H         176.8926  131.8301  126.4997 H        19        0    0.0000
    267 H         177.4590  131.3677  124.3341 H        19        0    0.0000
    268 H         175.8799  131.8372  123.7036 H        19        0    0.0000
    269 H         176.4709  133.9976  123.3078 H        19        0    0.0000
    270 H         178.8864  134.5439  123.0679 H        19        0    0.0000
    271 H         179.3366  133.0907  123.9543 H        19        0    0.0000
    272 H         177.1515  135.4067  125.1145 H        19        0    0.0000
    273 H         178.1600  134.1440  125.8343 H        19        0    0.0000
    274 H         176.2012  133.9739  127.1605 H        19        0    0.0000
    275 H         173.8725  133.9809  126.2545 H        19        0    0.0000
    276 H         174.4956  134.0833  124.6107 H        19        0    0.0000
    277 C         174.7028  135.9260  125.7277 C.3      20        0    0.0000
    278 C         175.7674  136.5919  124.8442 C.3      20        0    0.0000
    279 H         173.7162  136.2637  125.3851 H        20        0    0.0000
    280 H         174.7969  136.2428  126.7730 H        20        0    0.0000
    281 H         175.8366  136.1025  123.8656 H        20        0    0.0000
    282 H         175.4547  137.6269  124.6558 H        20        0    0.0000
    283 C         178.9628  138.0457  128.4020 C.3      21        0    0.0000
    284 C         178.5512  138.2650  126.9470 C.3      21        0    0.0000
    285 C         177.2050  137.5450  126.7562 C.3      21        0    0.0000
    286 C         177.1890  136.6611  125.5021 C.3      21        0    0.0000
    287 C         176.9839  136.7754  128.0675 C.3      21        0    0.0000
    288 C         177.6936  137.6116  129.1398 C.3      21        0    0.0000
    289 C         176.8808  138.8210  129.6369 C.3      21        0    0.0000
    290 H         179.7003  137.2340  128.4436 H        21        0    0.0000
    291 H         179.4347  138.9336  128.8346 H        21        0    0.0000
    292 H         179.3307  137.8984  126.2702 H        21        0    0.0000
    293 H         178.4273  139.3356  126.7455 H        21        0    0.0000
    294 H         176.4229  138.3118  126.6637 H        21        0    0.0000
    295 H         177.5329  135.6490  125.7450 H        21        0    0.0000
    296 H         177.8925  137.0661  124.7648 H        21        0    0.0000
    297 H         175.9212  136.6195  128.2777 H        21        0    0.0000
    298 H         177.4565  135.7860  128.0128 H        21        0    0.0000
    299 H         177.9618  136.9797  129.9961 H        21        0    0.0000
    300 H         175.8341  138.5509  129.8134 H        21        0    0.0000
    301 H         176.8775  139.5969  128.8617 H        21        0    0.0000
    302 C         176.9065  143.0338  131.3846 C.3      22        0    0.0000
    303 C         176.6145  141.8034  130.5272 C.3      22        0    0.0000
    304 C         176.6309  140.5915  131.4749 C.3      22        0    0.0000
    305 C         177.4833  139.4374  130.9311 C.3      22        0    0.0000
    306 C         177.1209  141.1526  132.8187 C.3      22        0    0.0000
    307 C         176.6470  142.6114  132.8330 C.3      22        0    0.0000
    308 C         175.1686  142.7906  133.2234 C.3      22        0    0.0000
    309 H         177.9645  143.3027  131.2708 H        22        0    0.0000
    310 H         176.3172  143.9019  131.0730 H        22        0    0.0000
    311 H         177.3463  141.7205  129.7162 H        22        0    0.0000
    312 H         175.6261  141.8922  130.0611 H        22        0    0.0000
    313 H         175.5949  140.2449  131.5966 H        22        0    0.0000
    314 H         177.5983  138.6572  131.6925 H        22        0    0.0000
    315 H         178.4900  139.8073  130.7024 H        22        0    0.0000
    316 H         176.7470  140.5710  133.6670 H        22        0    0.0000
    317 H         178.2176  141.1309  132.8633 H        22        0    0.0000
    318 H         177.2742  143.2061  133.5094 H        22        0    0.0000
    319 H         174.5963  141.8741  133.0440 H        22        0    0.0000
    320 H         174.7205  143.5681  132.5928 H        22        0    0.0000
    321 C         171.8447  144.1462  136.4204 C.3      23        0    0.0000
    322 C         172.4905  143.3786  135.2643 C.3      23        0    0.0000
    323 C         173.7847  144.1305  134.9053 C.3      23        0    0.0000
    324 C         175.0050  143.2226  134.7081 C.3      23        0    0.0000
    325 C         173.9783  145.1270  136.0528 C.3      23        0    0.0000
    326 C         172.5558  145.5024  136.4818 C.3      23        0    0.0000
    327 C         171.9232  146.5601  135.5576 C.3      23        0    0.0000
    328 H         170.7594  144.2215  136.3034 H        23        0    0.0000
    329 H         172.0303  143.6001  137.3542 H        23        0    0.0000
    330 H         172.6701  142.3387  135.5587 H        23        0    0.0000
    331 H         171.8194  143.3585  134.3977 H        23        0    0.0000
    332 H         173.6071  144.7022  133.9832 H        23        0    0.0000
    333 H         175.9103  143.7591  135.0163 H        23        0    0.0000
    334 H         174.9289  142.3349  135.3466 H        23        0    0.0000
    335 H         174.5730  145.9940  135.7471 H        23        0    0.0000
    336 H         174.4987  144.6472  136.8918 H        23        0    0.0000
    337 H         172.5697  145.8793  137.5124 H        23        0    0.0000
    338 H         171.6753  146.1334  134.5794 H        23        0    0.0000
    339 H         172.6449  147.3663  135.3798 H        23        0    0.0000
    340 C         170.9738  150.9661  136.3861 C.3      24        0    0.0000
    341 C         171.6035  149.5803  136.4119 C.3      24        0    0.0000
    342 C         170.4712  148.6810  135.9050 C.3      24        0    0.0000
    343 C         170.6440  147.1852  136.1858 C.3      24        0    0.0000
    344 C         169.1757  149.3140  136.4494 C.3      24        0    0.0000
    345 C         169.5727  150.7154  136.9534 C.3      24        0    0.0000
    346 C         168.5497  151.8252  136.6928 C.3      24        0    0.0000
    347 H         171.5393  151.6833  136.9891 H        24        0    0.0000
    348 H         170.9410  151.3385  135.3564 H        24        0    0.0000
    349 H         172.4911  149.5227  135.7744 H        24        0    0.0000
    350 H         171.9028  149.3289  137.4354 H        24        0    0.0000
    351 H         170.4414  148.7921  134.8106 H        24        0    0.0000
    352 H         170.6698  147.0251  137.2702 H        24        0    0.0000
    353 H         169.7669  146.6461  135.8085 H        24        0    0.0000
    354 H         168.7347  148.7406  137.2720 H        24        0    0.0000
    355 H         168.4217  149.3449  135.6555 H        24        0    0.0000
    356 H         169.6799  150.6395  138.0460 H        24        0    0.0000
    357 H         167.5407  151.4267  136.8523 H        24        0    0.0000
    358 H         168.6927  152.6246  137.4295 H        24        0    0.0000
    359 C         167.1183  155.9011  135.3264 C.3      25        0    0.0000
    360 C         167.9294  154.7828  135.9630 C.3      25        0    0.0000
    361 C         167.6235  153.5831  135.0640 C.3      25        0    0.0000
    362 C         168.6241  152.4421  135.2639 C.3      25        0    0.0000
    363 C         167.6060  154.1832  133.6461 C.3      25        0    0.0000
    364 C         167.3379  155.6920  133.8227 C.3      25        0    0.0000
    365 C         166.2497  156.2779  132.9140 C.3      25        0    0.0000
    366 H         167.4559  156.8889  135.6554 H        25        0    0.0000
    367 H         166.0652  155.7959  135.6087 H        25        0    0.0000
    368 H         168.9978  155.0300  135.9433 H        25        0    0.0000
    369 H         167.6376  154.6059  137.0027 H        25        0    0.0000
    370 H         166.6097  153.2269  135.2983 H        25        0    0.0000
    371 H         168.4527  151.6542  134.5209 H        25        0    0.0000
    372 H         169.6404  152.8178  135.0952 H        25        0    0.0000
    373 H         168.5734  154.0488  133.1464 H        25        0    0.0000
    374 H         166.8559  153.6835  133.0241 H        25        0    0.0000
    375 H         168.2725  156.2095  133.5596 H        25        0    0.0000
    376 H         165.7823  157.1313  133.4194 H        25        0    0.0000
    377 H         165.4629  155.5275  132.7720 H        25        0    0.0000
    378 C         164.5806  159.6948  132.0494 C.3      26        0    0.0000
    379 C         164.6443  158.2045  131.7060 C.3      26        0    0.0000
    380 C         165.9983  157.9702  131.0125 C.3      26        0    0.0000
    381 C         166.7578  156.7370  131.5170 C.3      26        0    0.0000
    382 C         166.7761  159.2696  131.2443 C.3      26        0    0.0000
    383 C         165.7042  160.3648  131.2512 C.3      26        0    0.0000
    384 C         165.2752  160.7759  129.8299 C.3      26        0    0.0000
    385 H         163.5894  160.1156  131.8552 H        26        0    0.0000
    386 H         164.7780  159.8188  133.1219 H        26        0    0.0000
    387 H         164.5221  157.6049  132.6147 H        26        0    0.0000
    388 H         163.8270  157.9342  131.0273 H        26        0    0.0000
    389 H         165.8195  157.8675  129.9326 H        26        0    0.0000
    390 H         166.6212  155.9114  130.8085 H        26        0    0.0000
    391 H         167.8336  156.9419  131.5625 H        26        0    0.0000
    392 H         167.5433  159.4303  130.4799 H        26        0    0.0000
    393 H         167.2798  159.2446  132.2193 H        26        0    0.0000
    394 H         166.0808  161.2449  131.7879 H        26        0    0.0000
    395 H         164.4387  160.1631  129.4763 H        26        0    0.0000
    396 H         166.1077  160.6094  129.1360 H        26        0    0.0000
    397 C         164.8785  162.2790  129.7584 C.3      27        0    0.0000
    398 C         163.3801  162.5395  129.9690 C.3      27        0    0.0000
    399 H         165.4288  162.7903  130.5587 H        27        0    0.0000
    400 H         165.2291  162.7091  128.8129 H        27        0    0.0000
    401 H         163.0728  163.4893  129.5158 H        27        0    0.0000
    402 H         162.8212  161.7495  129.4512 H        27        0    0.0000
    403 C         163.6082  165.2635  133.9739 C.3      28        0    0.0000
    404 C         162.9913  164.8018  132.6625 C.3      28        0    0.0000
    405 C         163.6956  163.4677  132.3851 C.3      28        0    0.0000
    406 C         162.9317  162.5012  131.4710 C.3      28        0    0.0000
    407 C         164.0821  162.9046  133.7682 C.3      28        0    0.0000
    408 C         163.6704  163.9746  134.7959 C.3      28        0    0.0000
    409 C         164.6088  164.1017  135.9985 C.3      28        0    0.0000
    410 H         164.6117  165.6704  133.7990 H        28        0    0.0000
    411 H         163.0052  166.0362  134.4607 H        28        0    0.0000
    412 H         161.9102  164.6797  132.7895 H        28        0    0.0000
    413 H         163.1540  165.5252  131.8574 H        28        0    0.0000
    414 H         164.6377  163.7033  131.8680 H        28        0    0.0000
    415 H         163.0578  161.4796  131.8489 H        28        0    0.0000
    416 H         161.8602  162.7266  131.5270 H        28        0    0.0000
    417 H         165.1646  162.7276  133.7916 H        28        0    0.0000
    418 H         163.5997  161.9474  133.9924 H        28        0    0.0000
    419 H         162.6547  163.7405  135.1467 H        28        0    0.0000
    420 H         165.1933  163.1822  136.1211 H        28        0    0.0000
    421 H         165.3275  164.9090  135.8135 H        28        0    0.0000
    422 C         166.0778  165.9081  140.0047 C.3      29        0    0.0000
    423 C         165.8596  164.9206  138.8668 C.3      29        0    0.0000
    424 C         164.5519  165.4099  138.2358 C.3      29        0    0.0000
    425 C         163.8475  164.4046  137.3196 C.3      29        0    0.0000
    426 C         163.7086  165.9422  139.4109 C.3      29        0    0.0000
    427 C         164.6758  166.0518  140.6059 C.3      29        0    0.0000
    428 C         164.4707  167.2696  141.5120 C.3      29        0    0.0000
    429 H         166.8025  165.5360  140.7355 H        29        0    0.0000
    430 H         166.4539  166.8562  139.6048 H        29        0    0.0000
    431 H         166.6892  164.9296  138.1530 H        29        0    0.0000
    432 H         165.7685  163.9060  139.2697 H        29        0    0.0000
    433 H         164.8054  166.2788  137.6098 H        29        0    0.0000
    434 H         163.7009  163.4648  137.8650 H        29        0    0.0000
    435 H         162.8491  164.7840  137.0717 H        29        0    0.0000
    436 H         162.8769  165.2793  139.6727 H        29        0    0.0000
    437 H         163.2621  166.9036  139.1351 H        29        0    0.0000
    438 H         164.5051  165.1636  141.2329 H        29        0    0.0000
    439 H         165.2727  167.2991  142.2591 H        29        0    0.0000
    440 H         164.5651  168.1826  140.9122 H        29        0    0.0000
    441 C         162.8077  170.6165  144.0158 C.3      30        0    0.0000
    442 C         163.2939  169.7520  142.8626 C.3      30        0    0.0000
    443 C         163.0563  168.3304  143.3763 C.3      30        0    0.0000
    444 C         163.0983  167.2951  142.2496 C.3      30        0    0.0000
    445 C         161.7070  168.4276  144.1115 C.3      30        0    0.0000
    446 C         161.5214  169.9160  144.4716 C.3      30        0    0.0000
    447 C         161.1014  170.1953  145.9203 C.3      30        0    0.0000
    448 H         162.6221  171.6487  143.7025 H        30        0    0.0000
    449 H         163.5683  170.6373  144.8037 H        30        0    0.0000
    450 H         162.7006  169.9517  141.9619 H        30        0    0.0000
    451 H         164.3465  169.9366  142.6276 H        30        0    0.0000
    452 H         163.8348  168.0975  144.1173 H        30        0    0.0000
    453 H         162.8827  166.2958  142.6459 H        30        0    0.0000
    454 H         162.3110  167.5210  141.5205 H        30        0    0.0000
    455 H         160.8791  168.1110  143.4650 H        30        0    0.0000
    456 H         161.6953  167.7692  144.9865 H        30        0    0.0000
    457 H         160.7073  170.2935  143.8351 H        30        0    0.0000
    458 H         161.3924  171.2184  146.1867 H        30        0    0.0000
    459 H         161.6584  169.5266  146.5873 H        30        0    0.0000
    460 C         157.2026  172.0359  144.0433 C.3      31        0    0.0000
    461 C         158.4938  171.2449  144.1866 C.3      31        0    0.0000
    462 C         158.7083  171.1806  145.7041 C.3      31        0    0.0000
    463 C         159.5803  170.0175  146.1939 C.3      31        0    0.0000
    464 C         157.2999  171.2604  146.3282 C.3      31        0    0.0000
    465 C         156.3229  171.4604  145.1551 C.3      31        0    0.0000
    466 C         155.1242  172.3599  145.4665 C.3      31        0    0.0000
    467 H         157.3923  173.1045  144.2018 H        31        0    0.0000
    468 H         156.7532  171.9107  143.0534 H        31        0    0.0000
    469 H         158.3650  170.2507  143.7451 H        31        0    0.0000
    470 H         159.3302  171.7321  143.6758 H        31        0    0.0000
    471 H         159.2324  172.1036  145.9938 H        31        0    0.0000
    472 H         159.4304  169.8902  147.2726 H        31        0    0.0000
    473 H         159.2405  169.0900  145.7181 H        31        0    0.0000
    474 H         157.2649  172.1090  147.0228 H        31        0    0.0000
    475 H         157.0342  170.3681  146.9047 H        31        0    0.0000
    476 H         155.9653  170.4712  144.8340 H        31        0    0.0000
    477 H         154.6398  172.6801  144.5365 H        31        0    0.0000
    478 H         154.3775  171.7867  146.0288 H        31        0    0.0000
    479 C         155.5191  173.6138  146.2962 C.3      32        0    0.0000
    480 C         154.3255  174.3481  146.9236 C.3      32        0    0.0000
    481 H         156.1691  173.2643  147.1086 H        32        0    0.0000
    482 H         156.1237  174.2893  145.6797 H        32        0    0.0000
    483 H         154.4978  175.4301  146.9613 H        32        0    0.0000
    484 H         153.4520  174.1919  146.2776 H        32        0    0.0000
    485 C         151.1384  174.0134  150.7205 C.3      33        0    0.0000
    486 C         152.5968  174.3810  150.4514 C.3      33        0    0.0000
    487 C         152.7289  174.5765  148.9311 C.3      33        0    0.0000
    488 C         153.9336  173.8253  148.3490 C.3      33        0    0.0000
    489 C         151.3753  174.1270  148.3598 C.3      33        0    0.0000
    490 C         150.3597  174.4281  149.4694 C.3      33        0    0.0000
    491 C         149.9161  175.9009  149.5355 C.3      33        0    0.0000
    492 H         151.0643  172.9258  150.8481 H        33        0    0.0000
    493 H         150.7609  174.4730  151.6394 H        33        0    0.0000
    494 H         153.2645  173.6049  150.8412 H        33        0    0.0000
    495 H         152.8533  175.3147  150.9657 H        33        0    0.0000
    496 H         152.8507  175.6518  148.7388 H        33        0    0.0000
    497 H         153.7263  172.7499  148.3035 H        33        0    0.0000
    498 H         154.7961  173.9535  149.0141 H        33        0    0.0000
    499 H         151.1414  174.6284  147.4156 H        33        0    0.0000
    500 H         151.3840  173.0466  148.1648 H        33        0    0.0000
    501 H         149.4750  173.7888  149.3559 H        33        0    0.0000
    502 H         149.6894  176.2929  148.5382 H        33        0    0.0000
    503 H         150.7392  176.5083  149.9311 H        33        0    0.0000
    504 C         149.6039  175.3719  154.0498 C.3      34        0    0.0000
    505 C         149.9121  175.9625  152.6824 C.3      34        0    0.0000
    506 C         148.8254  175.3542  151.7935 C.3      34        0    0.0000
    507 C         148.6841  176.0985  150.4635 C.3      34        0    0.0000
    508 C         147.5685  175.3799  152.6825 C.3      34        0    0.0000
    509 C         148.0745  175.4510  154.1380 C.3      34        0    0.0000
    510 C         147.4222  174.4603  155.1107 C.3      34        0    0.0000
    511 H         150.0893  175.9316  154.8555 H        34        0    0.0000
    512 H         149.9673  174.3395  154.0931 H        34        0    0.0000
    513 H         149.8315  177.0559  152.7142 H        34        0    0.0000
    514 H         150.9190  175.7027  152.3416 H        34        0    0.0000
    515 H         149.0871  174.3037  151.5998 H        34        0    0.0000
    516 H         147.7800  175.7674  149.9389 H        34        0    0.0000
    517 H         148.5595  177.1702  150.6595 H        34        0    0.0000
    518 H         146.9537  176.2645  152.4749 H        34        0    0.0000
    519 H         146.9399  174.5045  152.4885 H        34        0    0.0000
    520 H         147.8257  176.4569  154.5078 H        34        0    0.0000
    521 H         147.8228  174.6299  156.1171 H        34        0    0.0000
    522 H         147.7094  173.4410  154.8261 H        34        0    0.0000
    523 C         143.5215  177.4444  155.7090 C.3      35        0    0.0000
    524 C         143.8287  176.0650  155.1204 C.3      35        0    0.0000
    525 C         145.3562  175.9762  155.0056 C.3      35        0    0.0000
    526 C         145.8696  174.5427  155.1667 C.3      35        0    0.0000
    527 C         145.8436  176.9536  156.0803 C.3      35        0    0.0000
    528 C         144.8761  178.1317  155.9253 C.3      35        0    0.0000
    529 C         144.8547  179.1001  157.1112 C.3      35        0    0.0000
    530 H         142.8851  178.0327  155.0392 H        35        0    0.0000
    531 H         142.9767  177.3253  156.6532 H        35        0    0.0000
    532 H         143.3530  175.9320  154.1428 H        35        0    0.0000
    533 H         143.4304  175.2880  155.7839 H        35        0    0.0000
    534 H         145.6488  176.3649  154.0192 H        35        0    0.0000
    535 H         145.4581  173.9185  154.3645 H        35        0    0.0000
    536 H         145.5155  174.1160  156.1124 H        35        0    0.0000
    537 H         146.8835  177.2544  155.9183 H        35        0    0.0000
    538 H         145.7645  176.5093  157.0804 H        35        0    0.0000
    539 H         145.1335  178.6784  155.0063 H        35        0    0.0000
    540 H         145.7775  179.0061  157.6956 H        35        0    0.0000
    541 H         144.0281  178.8340  157.7809 H        35        0    0.0000
    542 C         145.7638  182.7087  159.6164 C.3      36        0    0.0000
    543 C         145.3213  181.3691  159.0444 C.3      36        0    0.0000
    544 C         145.4230  181.5930  157.5320 C.3      36        0    0.0000
    545 C         144.6733  180.5769  156.6651 C.3      36        0    0.0000
    546 C         145.0341  183.0683  157.3132 C.3      36        0    0.0000
    547 C         145.0526  183.7189  158.7102 C.3      36        0    0.0000
    548 C         145.5977  185.1493  158.7653 C.3      36        0    0.0000
    549 H         145.4731  182.8213  160.6655 H        36        0    0.0000
    550 H         146.8541  182.7955  159.5543 H        36        0    0.0000
    551 H         145.9616  180.5486  159.3826 H        36        0    0.0000
    552 H         144.2950  181.1525  159.3608 H        36        0    0.0000
    553 H         146.4875  181.5044  157.2674 H        36        0    0.0000
    554 H         143.6038  180.8187  156.6740 H        36        0    0.0000
    555 H         145.0097  180.6748  155.6261 H        36        0    0.0000
    556 H         144.0400  183.1850  156.8682 H        36        0    0.0000
    557 H         145.7405  183.5337  156.6174 H        36        0    0.0000
    558 H         144.0067  183.7700  159.0488 H        36        0    0.0000
    559 H         145.9397  185.3631  159.7849 H        36        0    0.0000
    560 H         146.4782  185.2225  158.1160 H        36        0    0.0000
    561 C         142.5923  183.4311  156.9453 C.3      37        0    0.0000
    562 C         143.8336  184.3140  156.7953 C.3      37        0    0.0000
    563 C         143.4834  185.6757  157.4216 C.3      37        0    0.0000
    564 C         144.5713  186.2426  158.3420 C.3      37        0    0.0000
    565 C         142.1645  185.4283  158.1609 C.3      37        0    0.0000
    566 C         141.4417  184.3725  157.3174 C.3      37        0    0.0000
    567 C         140.7374  184.9822  156.0905 C.3      37        0    0.0000
    568 H         142.4037  182.8372  156.0459 H        37        0    0.0000
    569 H         142.7591  182.7242  157.7682 H        37        0    0.0000
    570 H         144.6947  183.8344  157.2735 H        37        0    0.0000
    571 H         144.0828  184.4449  155.7358 H        37        0    0.0000
    572 H         143.2900  186.3899  156.6084 H        37        0    0.0000
    573 H         145.1099  187.0415  157.8185 H        37        0    0.0000
    574 H         144.1214  186.6942  159.2337 H        37        0    0.0000
    575 H         141.5828  186.3480  158.2808 H        37        0    0.0000
    576 H         142.3583  185.0255  159.1635 H        37        0    0.0000
    577 H         140.7046  183.8472  157.9380 H        37        0    0.0000
    578 H         140.4209  184.2032  155.3881 H        37        0    0.0000
    579 H         141.4396  185.6301  155.5524 H        37        0    0.0000
    580 C         139.8502  187.4622  159.9045 C.3      38        0    0.0000
    581 C         140.4940  186.8933  158.6494 C.3      38        0    0.0000
    582 C         139.3673  186.0729  158.0088 C.3      38        0    0.0000
    583 C         139.5041  185.8390  156.4990 C.3      38        0    0.0000
    584 C         138.0540  186.7460  158.4580 C.3      38        0    0.0000
    585 C         138.4606  187.8789  159.4181 C.3      38        0    0.0000
    586 C         137.4899  188.1145  160.5779 C.3      38        0    0.0000
    587 H         139.7830  186.6898  160.6803 H        38        0    0.0000
    588 H         140.4173  188.3061  160.3093 H        38        0    0.0000
    589 H         140.8260  187.7138  158.0041 H        38        0    0.0000
    590 H         141.3676  186.2763  158.8821 H        38        0    0.0000
    591 H         139.3868  185.0784  158.4791 H        38        0    0.0000
    592 H         138.5966  185.3449  156.1319 H        38        0    0.0000
    593 H         139.5615  186.8084  155.9900 H        38        0    0.0000
    594 H         137.4270  186.0020  158.9650 H        38        0    0.0000
    595 H         137.4656  187.1398  157.6227 H        38        0    0.0000
    596 H         138.5639  188.8042  158.8327 H        38        0    0.0000
    597 H         137.4742  187.2416  161.2413 H        38        0    0.0000
    598 H         137.8427  188.9606  161.1795 H        38        0    0.0000
    599 C         136.0492  191.5453  157.9375 C.3      39        0    0.0000
    600 C         136.6433  190.7173  159.0684 C.3      39        0    0.0000
    601 C         135.9671  189.3545  158.8857 C.3      39        0    0.0000
    602 C         136.0438  188.4154  160.0934 C.3      39        0    0.0000
    603 C         134.5462  189.6711  158.3794 C.3      39        0    0.0000
    604 C         134.5673  191.1574  157.9719 C.3      39        0    0.0000
    605 C         133.7664  191.5087  156.7144 C.3      39        0    0.0000
    606 H         136.1972  192.6181  158.0949 H        39        0    0.0000
    607 H         136.5249  191.2717  156.9892 H        39        0    0.0000
    608 H         137.7331  190.6486  158.9959 H        39        0    0.0000
    609 H         136.3945  191.1749  160.0322 H        39        0    0.0000
    610 H         136.4904  188.8468  158.0614 H        39        0    0.0000
    611 H         135.4780  188.8537  160.9242 H        39        0    0.0000
    612 H         135.5520  187.4681  159.8426 H        39        0    0.0000
    613 H         133.7769  189.5117  159.1426 H        39        0    0.0000
    614 H         134.2976  189.0047  157.5464 H        39        0    0.0000
    615 H         134.1099  191.7187  158.8006 H        39        0    0.0000
    616 H         133.7095  192.5996  156.6193 H        39        0    0.0000
    617 H         134.3055  191.1432  155.8324 H        39        0    0.0000
    618 C         131.9178  190.8761  160.3821 C.3      40        0    0.0000
    619 C         132.8579  190.6319  159.1991 C.3      40        0    0.0000
    620 C         131.9711  190.2227  158.0094 C.3      40        0    0.0000
    621 C         132.3204  190.9284  156.6932 C.3      40        0    0.0000
    622 C         130.5436  190.5280  158.4742 C.3      40        0    0.0000
    623 C         130.5666  190.2715  159.9848 C.3      40        0    0.0000
    624 C         130.4487  188.7745  160.3284 C.3      40        0    0.0000
    625 H         132.3242  190.4741  161.3150 H        40        0    0.0000
    626 H         131.8004  191.9583  160.5223 H        40        0    0.0000
    627 H         133.4501  191.5317  158.9990 H        40        0    0.0000
    628 H         133.5630  189.8254  159.4323 H        40        0    0.0000
    629 H         132.0598  189.1357  157.8709 H        40        0    0.0000
    630 H         132.2448  190.2125  155.8661 H        40        0    0.0000
    631 H         131.6019  191.7299  156.4862 H        40        0    0.0000
    632 H         129.8020  189.9163  157.9503 H        40        0    0.0000
    633 H         130.2975  191.5811  158.2857 H        40        0    0.0000
    634 H         129.7470  190.8219  160.4641 H        40        0    0.0000
    635 H         131.0399  188.5245  161.2163 H        40        0    0.0000
    636 H         130.8499  188.1784  159.5002 H        40        0    0.0000
    637 C         126.0299  188.5611  158.3033 C.3      41        0    0.0000
    638 C         127.5431  188.3563  158.4088 C.3      41        0    0.0000
    639 C         128.0061  189.1303  159.6561 C.3      41        0    0.0000
    640 C         128.9694  188.3496  160.5587 C.3      41        0    0.0000
    641 C         126.7072  189.5064  160.3763 C.3      41        0    0.0000
    642 C         125.6889  189.7167  159.2505 C.3      41        0    0.0000
    643 C         125.8222  191.1014  158.5888 C.3      41        0    0.0000
    644 H         125.7127  188.7292  157.2697 H        41        0    0.0000
    645 H         125.5251  187.6505  158.6505 H        41        0    0.0000
    646 H         127.7737  187.2865  158.4619 H        41        0    0.0000
    647 H         128.0447  188.7519  157.5179 H        41        0    0.0000
    648 H         128.4936  190.0584  159.3248 H        41        0    0.0000
    649 H         128.7136  188.5347  161.6088 H        41        0    0.0000
    650 H         128.8626  187.2717  160.3909 H        41        0    0.0000
    651 H         126.8305  190.3914  161.0089 H        41        0    0.0000
    652 H         126.3751  188.6819  161.0205 H        41        0    0.0000
    653 H         124.6725  189.5976  159.6468 H        41        0    0.0000
    654 H         125.3248  191.1232  157.6129 H        41        0    0.0000
    655 H         126.8821  191.3193  158.4111 H        41        0    0.0000
    656 C         125.0799  189.5539  161.9958 C.3      42        0    0.0000
    657 C         125.9668  190.5863  161.3014 C.3      42        0    0.0000
    658 C         125.0605  191.7768  160.9435 C.3      42        0    0.0000
    659 C         125.2402  192.2299  159.4886 C.3      42        0    0.0000
    660 C         123.6388  191.3011  161.2799 C.3      42        0    0.0000
    661 C         123.8190  190.3045  162.4321 C.3      42        0    0.0000
    662 C         123.9955  190.9621  163.8129 C.3      42        0    0.0000
    663 H         124.8051  188.7771  161.2708 H        42        0    0.0000
    664 H         125.5971  189.0563  162.8222 H        42        0    0.0000
    665 H         126.4549  190.1436  160.4262 H        42        0    0.0000
    666 H         126.7616  190.9200  161.9789 H        42        0    0.0000
    667 H         125.3187  192.6100  161.6123 H        42        0    0.0000
    668 H         125.8902  193.1114  159.4417 H        42        0    0.0000
    669 H         124.2680  192.5315  159.0806 H        42        0    0.0000
    670 H         122.9761  192.1346  161.5324 H        42        0    0.0000
    671 H         123.1981  190.7798  160.4201 H        42        0    0.0000
    672 H         122.9696  189.6105  162.4681 H        42        0    0.0000
    673 H         124.3571  191.9918  163.7195 H        42        0    0.0000
    674 H         124.7573  190.4129  164.3794 H        42        0    0.0000
    675 C         122.6785  190.9473  164.6394 C.3      43        0    0.0000
    676 C         122.8324  190.3556  166.0478 C.3      43        0    0.0000
    677 H         122.3571  191.9917  164.7422 H        43        0    0.0000
    678 H         121.8932  190.4320  164.0739 H        43        0    0.0000
    679 H         123.8289  189.9215  166.1914 H        43        0    0.0000
    680 H         122.7393  191.1741  166.7731 H        43        0    0.0000
    681 C         118.1914  190.6625  166.5154 C.3      44        0    0.0000
    682 C         119.6690  190.7934  166.8570 C.3      44        0    0.0000
    683 C         120.3148  189.6932  166.0083 C.3      44        0    0.0000
    684 C         121.7366  189.2966  166.4173 C.3      44        0    0.0000
    685 C         119.2866  188.5454  165.9815 C.3      44        0    0.0000
    686 C         117.9728  189.1459  166.5191 C.3      44        0    0.0000
    687 C         116.6945  188.6641  165.8264 C.3      44        0    0.0000
    688 H         117.5560  191.1712  167.2469 H        44        0    0.0000
    689 H         117.9984  191.1042  165.5316 H        44        0    0.0000
    690 H         120.0593  191.7856  166.6101 H        44        0    0.0000
    691 H         119.8170  190.6268  167.9297 H        44        0    0.0000
    692 H         120.3820  190.0812  164.9807 H        44        0    0.0000
    693 H         121.7631  189.1254  167.5000 H        44        0    0.0000
    694 H         121.9937  188.3430  165.9412 H        44        0    0.0000
    695 H         119.5820  187.6945  166.6048 H        44        0    0.0000
    696 H         119.1926  188.1619  164.9598 H        44        0    0.0000
    697 H         117.8925  188.8379  167.5725 H        44        0    0.0000
    698 H         116.7405  188.9313  164.7640 H        44        0    0.0000
    699 H         116.6515  187.5696  165.8745 H        44        0    0.0000
    700 C         114.7756  192.3617  168.4664 C.3      45        0    0.0000
    701 C         115.1785  191.6760  167.1582 C.3      45        0    0.0000
    702 C         115.6511  190.2667  167.5386 C.3      45        0    0.0000
    703 C         115.3808  189.2436  166.4318 C.3      45        0    0.0000
    704 C         114.9129  189.9948  168.8536 C.3      45        0    0.0000
    705 C         115.0216  191.3382  169.5826 C.3      45        0    0.0000
    706 C         114.0498  191.5091  170.7536 C.3      45        0    0.0000
    707 H         115.3569  193.2745  168.6353 H        45        0    0.0000
    708 H         113.7198  192.6537  168.4153 H        45        0    0.0000
    709 H         115.9705  192.2302  166.6433 H        45        0    0.0000
    710 H         114.3148  191.6411  166.4833 H        45        0    0.0000
    711 H         116.7304  190.3113  167.7450 H        45        0    0.0000
    712 H         114.8081  189.7223  165.6285 H        45        0    0.0000
    713 H         114.7626  188.4233  166.8150 H        45        0    0.0000
    714 H         115.3762  189.1822  169.4222 H        45        0    0.0000
    715 H         113.8639  189.7321  168.6682 H        45        0    0.0000
    716 H         116.0548  191.4614  169.9388 H        45        0    0.0000
    717 H         113.0139  191.4618  170.3980 H        45        0    0.0000
    718 H         114.1872  192.5031  171.1958 H        45        0    0.0000
    719 C         110.9002  190.0061  173.5456 C.3      46        0    0.0000
    720 C         111.7491  190.6332  172.4504 C.3      46        0    0.0000
    721 C         113.1853  190.4315  172.9502 C.3      46        0    0.0000
    722 C         114.2655  190.4416  171.8612 C.3      46        0    0.0000
    723 C         113.1462  189.1663  173.8320 C.3      46        0    0.0000
    724 C         111.6708  188.7294  173.8879 C.3      46        0    0.0000
    725 C         111.2307  188.1309  175.2262 C.3      46        0    0.0000
    726 H         110.8411  190.6770  174.4114 H        46        0    0.0000
    727 H         109.8818  189.7960  173.2048 H        46        0    0.0000
    728 H         111.5649  190.1156  171.5028 H        46        0    0.0000
    729 H         111.5117  191.6918  172.3052 H        46        0    0.0000
    730 H         113.4135  191.2738  173.6203 H        46        0    0.0000
    731 H         115.2416  190.6146  172.3299 H        46        0    0.0000
    732 H         114.3127  189.4507  171.3942 H        46        0    0.0000
    733 H         113.5242  189.4159  174.8312 H        46        0    0.0000
    734 H         113.7750  188.3559  173.4486 H        46        0    0.0000
    735 H         111.4991  187.9978  173.0849 H        46        0    0.0000
    736 H         111.4151  187.0501  175.2361 H        46        0    0.0000
    737 H         111.8371  188.5608  176.0323 H        46        0    0.0000
    738 C         108.2217  185.5352  177.5281 C.3      47        0    0.0000
    739 C         109.1968  186.0442  176.4757 C.3      47        0    0.0000
    740 C         109.1664  187.5614  176.6871 C.3      47        0    0.0000
    741 C         109.7305  188.3973  175.5341 C.3      47        0    0.0000
    742 C         107.7157  187.8853  177.0948 C.3      47        0    0.0000
    743 C         107.0610  186.5305  177.4282 C.3      47        0    0.0000
    744 C         106.0972  186.5380  178.6187 C.3      47        0    0.0000
    745 H         107.9014  184.5084  177.3261 H        47        0    0.0000
    746 H         108.6981  185.5552  178.5144 H        47        0    0.0000
    747 H         110.2003  185.6298  176.6138 H        47        0    0.0000
    748 H         108.8457  185.7599  175.4776 H        47        0    0.0000
    749 H         109.7960  187.7740  177.5642 H        47        0    0.0000
    750 H         109.1446  188.1996  174.6285 H        47        0    0.0000
    751 H         109.6021  189.4611  175.7663 H        47        0    0.0000
    752 H         107.1496  188.3791  176.2977 H        47        0    0.0000
    753 H         107.7200  188.5766  177.9444 H        47        0    0.0000
    754 H         106.4677  186.2411  176.5477 H        47        0    0.0000
    755 H         106.1064  187.5324  179.0805 H        47        0    0.0000
    756 H         105.0768  186.3692  178.2548 H        47        0    0.0000
    757 C         105.1168  181.9853  180.3969 C.3      48        0    0.0000
    758 C         106.2151  182.8971  179.8718 C.3      48        0    0.0000
    759 C         105.5056  184.2449  179.6897 C.3      48        0    0.0000
    760 C         106.4210  185.4755  179.7115 C.3      48        0    0.0000
    761 C         104.3583  184.2549  180.7209 C.3      48        0    0.0000
    762 C         104.3846  182.8751  181.4035 C.3      48        0    0.0000
    763 C         103.0079  182.3171  181.7726 C.3      48        0    0.0000
    764 H         104.4516  181.6822  179.5792 H        48        0    0.0000
    765 H         105.5222  181.0814  180.8618 H        48        0    0.0000
    766 H         107.0264  182.9532  180.6056 H        48        0    0.0000
    767 H         106.6385  182.5278  178.9325 H        48        0    0.0000
    768 H         105.0338  184.2277  178.6959 H        48        0    0.0000
    769 H         106.3519  185.9528  180.6963 H        48        0    0.0000
    770 H         107.4613  185.1503  179.5926 H        48        0    0.0000
    771 H         103.4088  184.4202  180.1966 H        48        0    0.0000
    772 H         104.4543  185.0550  181.4624 H        48        0    0.0000
    773 H         105.0038  182.9522  182.3091 H        48        0    0.0000
    774 H         103.0075  181.2240  181.6870 H        48        0    0.0000
    775 H         102.7919  182.5505  182.8220 H        48        0    0.0000
    776 C          99.6286  184.4951  182.6786 C.3      49        0    0.0000
    777 C         100.2759  183.1181  182.8497 C.3      49        0    0.0000
    778 C         100.4763  182.5512  181.4400 C.3      49        0    0.0000
    779 C         101.8710  182.9006  180.8874 C.3      49        0    0.0000
    780 C          99.3109  183.1854  180.6701 C.3      49        0    0.0000
    781 C          99.2462  184.6221  181.1946 C.3      49        0    0.0000
    782 C          97.8813  185.2733  180.9441 C.3      49        0    0.0000
    783 H          98.7615  184.5815  183.3432 H        49        0    0.0000
    784 H         100.3314  185.2886  182.9573 H        49        0    0.0000
    785 H          99.5865  182.4702  183.4059 H        49        0    0.0000
    786 H         101.2030  183.1714  183.4296 H        49        0    0.0000
    787 H         100.3640  181.4596  181.4587 H        49        0    0.0000
    788 H         101.9839  183.9911  180.8574 H        49        0    0.0000
    789 H         101.9909  182.5458  179.8582 H        49        0    0.0000
    790 H          98.3828  182.6506  180.9106 H        49        0    0.0000
    791 H          99.4350  183.1534  179.5835 H        49        0    0.0000
    792 H         100.0220  185.2119  180.6865 H        49        0    0.0000
    793 H          97.9320  185.9443  180.0787 H        49        0    0.0000
    794 H          97.6078  185.8896  181.8087 H        49        0    0.0000
    795 C          96.7672  184.2119  180.7148 C.3      50        0    0.0000
    796 C          95.6965  184.6403  179.7011 C.3      50        0    0.0000
    797 H          97.2619  183.3120  180.3276 H        50        0    0.0000
    798 H          96.3184  183.9340  181.6756 H        50        0    0.0000
    799 H          94.9266  183.8687  179.5840 H        50        0    0.0000
    800 H          95.1907  185.5307  180.0960 H        50        0    0.0000
    801 C          93.9631  187.9227  177.4757 C.3      51        0    0.0000
    802 C          94.2660  186.6745  178.2904 C.3      51        0    0.0000
    803 C          95.3783  185.9852  177.4901 C.3      51        0    0.0000
    804 C          96.2704  185.0319  178.2954 C.3      51        0    0.0000
    805 C          96.1193  187.1156  176.7468 C.3      51        0    0.0000
    806 C          95.3545  188.4125  177.0691 C.3      51        0    0.0000
    807 C          95.2978  189.4242  175.9218 C.3      51        0    0.0000
    808 H          93.3613  187.6650  176.5956 H        51        0    0.0000
    809 H          93.4155  188.6695  178.0586 H        51        0    0.0000
    810 H          94.5972  186.9636  179.2937 H        51        0    0.0000
    811 H          93.3848  186.0347  178.4004 H        51        0    0.0000
    812 H          94.8871  185.3725  176.7195 H        51        0    0.0000
    813 H          96.4286  184.1160  177.7136 H        51        0    0.0000
    814 H          97.2563  185.4922  178.4306 H        51        0    0.0000
    815 H          96.1054  186.9039  175.6704 H        51        0    0.0000
    816 H          97.1710  187.2044  177.0387 H        51        0    0.0000
    817 H          95.8252  188.8793  177.9466 H        51        0    0.0000
    818 H          95.4850  190.4361  176.3002 H        51        0    0.0000
    819 H          96.0972  189.2037  175.2045 H        51        0    0.0000
    820 C          93.8866  192.6797  175.3439 C.3      52        0    0.0000
    821 C          92.9483  191.6825  174.6588 C.3      52        0    0.0000
    822 C          93.8283  190.5395  174.1410 C.3      52        0    0.0000
    823 C          93.9354  189.4014  175.1734 C.3      52        0    0.0000
    824 C          95.1511  191.2593  173.8494 C.3      52        0    0.0000
    825 C          95.3212  192.2305  175.0203 C.3      52        0    0.0000
    826 C          96.2864  193.3754  174.6926 C.3      52        0    0.0000
    827 H          93.6745  193.6934  174.9854 H        52        0    0.0000
    828 H          93.7253  192.6785  176.4279 H        52        0    0.0000
    829 H          92.4635  192.1797  173.8091 H        52        0    0.0000
    830 H          92.1514  191.3443  175.3289 H        52        0    0.0000
    831 H          93.4066  190.1376  173.2107 H        52        0    0.0000
    832 H          93.8422  188.4376  174.6583 H        52        0    0.0000
    833 H          93.1182  189.4468  175.9011 H        52        0    0.0000
    834 H          95.0630  191.8131  172.9055 H        52        0    0.0000
    835 H          96.0057  190.5829  173.7534 H        52        0    0.0000
    836 H          95.7110  191.6702  175.8817 H        52        0    0.0000
    837 H          97.3179  193.0811  174.9187 H        52        0    0.0000
    838 H          96.0557  194.2391  175.3274 H        52        0    0.0000
    839 C          96.1843  193.8096  173.2022 C.3      53        0    0.0000
    840 C          97.3309  193.2925  172.3218 C.3      53        0    0.0000
    841 H          96.2132  194.9067  173.1891 H        53        0    0.0000
    842 H          95.2080  193.5170  172.7982 H        53        0    0.0000
    843 H          98.0329  194.1198  172.1562 H        53        0    0.0000
    844 H          97.8949  192.4993  172.8265 H        53        0    0.0000
    845 C          95.3845  195.7662  169.1170 C.3      54        0    0.0000
    846 C          96.3597  195.1533  170.1104 C.3      54        0    0.0000
    847 C          95.8371  193.7237  170.2661 C.3      54        0    0.0000
    848 C          96.8736  192.7968  170.9062 C.3      54        0    0.0000
    849 C          95.4161  193.3303  168.8383 C.3      54        0    0.0000
    850 C          95.1814  194.6535  168.0808 C.3      54        0    0.0000
    851 C          93.8737  194.7320  167.2829 C.3      54        0    0.0000
    852 H          95.7829  196.6793  168.6637 H        54        0    0.0000
    853 H          94.4532  196.0266  169.6315 H        54        0    0.0000
    854 H          97.3762  195.1605  169.6983 H        54        0    0.0000
    855 H          96.3713  195.6955  171.0608 H        54        0    0.0000
    856 H          94.9346  193.7535  170.8939 H        54        0    0.0000
    857 H          96.4705  191.7808  170.9921 H        54        0    0.0000
    858 H          97.7532  192.7323  170.2547 H        54        0    0.0000
    859 H          96.2089  192.7653  168.3323 H        54        0    0.0000
    860 H          94.5316  192.6850  168.8600 H        54        0    0.0000
    861 H          95.9971  194.7443  167.3480 H        54        0    0.0000
    862 H          93.7939  195.7240  166.8226 H        54        0    0.0000
    863 H          93.0284  194.6381  167.9750 H        54        0    0.0000
    864 C          96.1332  190.7248  166.3414 C.3      55        0    0.0000
    865 C          95.2759  191.7623  167.0501 C.3      55        0    0.0000
    866 C          94.9883  192.7978  165.9557 C.3      55        0    0.0000
    867 C          93.7316  193.6500  166.1740 C.3      55        0    0.0000
    868 C          95.0384  192.0217  164.6235 C.3      55        0    0.0000
    869 C          95.4438  190.5805  164.9831 C.3      55        0    0.0000
    870 C          96.3400  189.8912  163.9514 C.3      55        0    0.0000
    871 H          97.1596  191.0943  166.2271 H        55        0    0.0000
    872 H          96.1687  189.7787  166.8901 H        55        0    0.0000
    873 H          94.3607  191.2888  167.4217 H        55        0    0.0000
    874 H          95.7947  192.2053  167.9060 H        55        0    0.0000
    875 H          95.8379  193.4967  165.9436 H        55        0    0.0000
    876 H          93.4698  194.1457  165.2316 H        55        0    0.0000
    877 H          92.8918  192.9918  166.4264 H        55        0    0.0000
    878 H          95.7807  192.4901  163.9653 H        55        0    0.0000
    879 H          94.0854  192.0320  164.0842 H        55        0    0.0000
    880 H          94.5261  189.9910  165.1237 H        55        0    0.0000
    881 H          97.2286  190.5024  163.7537 H        55        0    0.0000
    882 H          96.6979  188.9391  164.3609 H        55        0    0.0000
    883 C          95.6020  189.6124  162.6119 C.3      56        0    0.0000
    884 C          96.2562  188.5191  161.7550 C.3      56        0    0.0000
    885 H          95.6190  190.5490  162.0399 H        56        0    0.0000
    886 H          94.5480  189.3858  162.8110 H        56        0    0.0000
    887 H          97.0587  188.9823  161.1666 H        56        0    0.0000
    888 H          96.7285  187.7519  162.3797 H        56        0    0.0000
    889 C          98.2699  186.2641  159.2022 C.3      57        0    0.0000
    890 C          97.0783  187.2027  158.9972 C.3      57        0    0.0000
    891 C          95.9680  186.7183  159.9469 C.3      57        0    0.0000
    892 C          95.2794  187.8408  160.7330 C.3      57        0    0.0000
    893 C          96.6635  185.7063  160.8630 C.3      57        0    0.0000
    894 C          97.7330  185.0565  159.9783 C.3      57        0    0.0000
    895 C          97.1532  183.9594  159.0656 C.3      57        0    0.0000
    896 H          98.7498  186.0020  158.2545 H        57        0    0.0000
    897 H          99.0233  186.7780  159.8129 H        57        0    0.0000
    898 H          97.3798  188.2385  159.1882 H        57        0    0.0000
    899 H          96.7280  187.1534  157.9596 H        57        0    0.0000
    900 H          95.2161  186.1800  159.3523 H        57        0    0.0000
    901 H          94.9204  188.6059  160.0345 H        57        0    0.0000
    902 H          94.3998  187.4547  161.2609 H        57        0    0.0000
    903 H          95.9591  184.9801  161.2814 H        57        0    0.0000
    904 H          97.1472  186.2210  161.7033 H        57        0    0.0000
    905 H          98.5216  184.6276  160.6094 H        57        0    0.0000
    906 H          96.8672  184.3667  158.0896 H        57        0    0.0000
    907 H          96.2423  183.5518  159.5200 H        57        0    0.0000
    908 C          98.1575  182.7884  158.8605 C.3      58        0    0.0000
    909 C          97.5952  181.4106  159.2387 C.3      58        0    0.0000
    910 H          98.4104  182.7714  157.7926 H        58        0    0.0000
    911 H          99.0881  183.0011  159.3996 H        58        0    0.0000
    912 H          96.5057  181.3783  159.1202 H        58        0    0.0000
    913 H          98.0088  180.6709  158.5414 H        58        0    0.0000
    914 C          98.9274  181.2524  163.8115 C.3      59        0    0.0000
    915 C          97.7027  181.7812  163.0602 C.3      59        0    0.0000
    916 C          98.1747  182.1269  161.6436 C.3      59        0    0.0000
    917 C          97.9839  180.9384  160.6825 C.3      59        0    0.0000
    918 C          99.6373  182.5239  161.8803 C.3      59        0    0.0000
    919 C         100.1449  181.5091  162.9079 C.3      59        0    0.0000
    920 C         101.3925  182.0037  163.6487 C.3      59        0    0.0000
    921 H          99.0124  181.7557  164.7812 H        59        0    0.0000
    922 H          98.8237  180.1796  164.0107 H        59        0    0.0000
    923 H          97.3501  182.6939  163.5571 H        59        0    0.0000
    924 H          96.8731  181.0670  163.0766 H        59        0    0.0000
    925 H          97.6092  182.9870  161.2627 H        59        0    0.0000
    926 H          97.1813  180.2940  161.0613 H        59        0    0.0000
    927 H          98.8853  180.3183  160.6337 H        59        0    0.0000
    928 H          99.6754  183.5388  162.2973 H        59        0    0.0000
    929 H         100.2446  182.5210  160.9703 H        59        0    0.0000
    930 H         100.3886  180.5754  162.3818 H        59        0    0.0000
    931 H         102.0959  181.1776  163.8047 H        59        0    0.0000
    932 H         101.1053  182.3687  164.6419 H        59        0    0.0000
    933 C         103.0165  182.2937  159.3054 C.3      60        0    0.0000
    934 C         102.1117  182.1002  160.5126 C.3      60        0    0.0000
    935 C         102.9255  182.6941  161.6694 C.3      60        0    0.0000
    936 C         102.1036  183.1543  162.8801 C.3      60        0    0.0000
    937 C         103.8283  183.7716  161.0342 C.3      60        0    0.0000
    938 C         103.5738  183.7029  159.5172 C.3      60        0    0.0000
    939 C         104.8049  183.9732  158.6487 C.3      60        0    0.0000
    940 H         103.8190  181.5461  159.3085 H        60        0    0.0000
    941 H         102.4674  182.2032  158.3632 H        60        0    0.0000
    942 H         101.1692  182.6350  160.3532 H        60        0    0.0000
    943 H         101.8737  181.0450  160.6798 H        60        0    0.0000
    944 H         103.5939  181.8995  162.0331 H        60        0    0.0000
    945 H         102.7630  183.6862  163.5763 H        60        0    0.0000
    946 H         101.3495  183.8774  162.5473 H        60        0    0.0000
    947 H         104.8752  183.5452  161.2715 H        60        0    0.0000
    948 H         103.6279  184.7788  161.4145 H        60        0    0.0000
    949 H         102.7838  184.4265  159.2688 H        60        0    0.0000
    950 H         104.5011  184.1786  157.6154 H        60        0    0.0000
    951 H         105.3138  184.8740  159.0119 H        60        0    0.0000
    952 C         108.9450  183.3557  156.6337 C.3      61        0    0.0000
    953 C         107.7330  183.8926  157.3995 C.3      61        0    0.0000
    954 C         106.6939  182.7637  157.4073 C.3      61        0    0.0000
    955 C         105.8142  182.7910  158.6603 C.3      61        0    0.0000
    956 C         107.5496  181.5017  157.2552 C.3      61        0    0.0000
    957 C         108.5877  181.9247  156.2107 C.3      61        0    0.0000
    958 C         109.8184  181.0172  156.1303 C.3      61        0    0.0000
    959 H         109.1749  183.9772  155.7616 H        61        0    0.0000
    960 H         109.8261  183.3730  157.2863 H        61        0    0.0000
    961 H         107.3291  184.7949  156.9277 H        61        0    0.0000
    962 H         108.0361  184.1660  158.4173 H        61        0    0.0000
    963 H         106.0647  182.8710  156.5116 H        61        0    0.0000
    964 H         106.4513  182.8851  159.5479 H        61        0    0.0000
    965 H         105.2681  181.8459  158.7622 H        61        0    0.0000
    966 H         106.9576  180.6443  156.9197 H        61        0    0.0000
    967 H         108.0323  181.2376  158.2045 H        61        0    0.0000
    968 H         108.0974  181.9705  155.2273 H        61        0    0.0000
    969 H         110.0145  180.5553  157.1050 H        61        0    0.0000
    970 H         110.6991  181.6224  155.8843 H        61        0    0.0000
    971 C         109.6652  179.9078  155.0538 C.3      62        0    0.0000
    972 C         110.9627  179.5893  154.2972 C.3      62        0    0.0000
    973 H         109.3454  178.9987  155.5791 H        62        0    0.0000
    974 H         108.8555  180.1721  154.3636 H        62        0    0.0000
    975 H         111.6679  180.4273  154.3445 H        62        0    0.0000
    976 H         111.4488  178.7415  154.7968 H        62        0    0.0000
    977 C         113.8024  178.7984  150.8107 C.3      63        0    0.0000
    978 C         113.2195  179.0639  152.1979 C.3      63        0    0.0000
    979 C         111.8876  178.2973  152.2707 C.3      63        0    0.0000
    980 C         110.7419  179.1680  152.8030 C.3      63        0    0.0000
    981 C         111.6622  177.7688  150.8457 C.3      63        0    0.0000
    982 C         113.0708  177.5657  150.2733 C.3      63        0    0.0000
    983 C         113.7509  176.2587  150.7202 C.3      63        0    0.0000
    984 H         113.5848  179.6581  150.1639 H        63        0    0.0000
    985 H         114.8903  178.6809  150.8369 H        63        0    0.0000
    986 H         113.1016  180.1405  152.3629 H        63        0    0.0000
    987 H         113.9005  178.6921  152.9725 H        63        0    0.0000
    988 H         112.0285  177.4402  152.9442 H        63        0    0.0000
    989 H         109.7858  178.6407  152.7057 H        63        0    0.0000
    990 H         110.6652  180.0772  152.1946 H        63        0    0.0000
    991 H         111.0592  176.8555  150.8373 H        63        0    0.0000
    992 H         111.1335  178.5171  150.2411 H        63        0    0.0000
    993 H         113.0422  177.6018  149.1768 H        63        0    0.0000
    994 H         113.5338  176.0368  151.7706 H        63        0    0.0000
    995 H         114.8389  176.3733  150.6427 H        63        0    0.0000
    996 C         115.3976  174.6844  146.7024 C.3      64        0    0.0000
    997 C         115.1981  175.2392  148.1152 C.3      64        0    0.0000
    998 C         113.6836  175.2571  148.3609 C.3      64        0    0.0000
    999 C         113.3309  175.0502  149.8365 C.3      64        0    0.0000
   1000 C         113.1654  174.1634  147.4211 C.3      64        0    0.0000
   1001 C         113.9954  174.3902  146.1532 C.3      64        0    0.0000
   1002 C         113.9901  173.2174  145.1688 C.3      64        0    0.0000
   1003 H         115.9279  175.3985  146.0632 H        64        0    0.0000
   1004 H         116.0087  173.7751  146.7502 H        64        0    0.0000
   1005 H         115.6240  176.2434  148.2147 H        64        0    0.0000
   1006 H         115.7141  174.5945  148.8368 H        64        0    0.0000
   1007 H         113.2927  176.2268  148.0199 H        64        0    0.0000
   1008 H         113.8402  174.1529  150.2080 H        64        0    0.0000
   1009 H         112.2550  174.8724  149.9490 H        64        0    0.0000
   1010 H         112.0921  174.2628  147.2305 H        64        0    0.0000
   1011 H         113.3509  173.1660  147.8390 H        64        0    0.0000
   1012 H         113.6273  175.2964  145.6504 H        64        0    0.0000
   1013 H         114.8187  173.3142  144.4575 H        64        0    0.0000
   1014 H         113.0646  173.2421  144.5812 H        64        0    0.0000
   1015 C         114.0829  171.8430  145.8866 C.3      65        0    0.0000
   1016 C         113.7315  170.6464  144.9910 C.3      65        0    0.0000
   1017 H         113.3648  171.8697  146.7163 H        65        0    0.0000
   1018 H         115.0763  171.7269  146.3356 H        65        0    0.0000
   1019 H         112.6538  170.4589  145.0807 H        65        0    0.0000
   1020 H         113.9241  170.8685  143.9348 H        65        0    0.0000
   1021 C         114.1152  166.7742  142.7093 C.3      66        0    0.0000
   1022 C         113.6762  168.1452  143.2295 C.3      66        0    0.0000
   1023 C         113.7842  168.0889  144.7639 C.3      66        0    0.0000
   1024 C         114.4573  169.3156  145.3919 C.3      66        0    0.0000
   1025 C         114.5525  166.7937  145.0455 C.3      66        0    0.0000
   1026 C         114.1254  165.8402  143.9244 C.3      66        0    0.0000
   1027 C         112.7570  165.1876  144.1978 C.3      66        0    0.0000
   1028 H         113.4786  166.4263  141.8902 H        66        0    0.0000
   1029 H         115.1347  166.8574  142.3111 H        66        0    0.0000
   1030 H         114.2989  168.9307  142.7875 H        66        0    0.0000
   1031 H         112.6399  168.3503  142.9367 H        66        0    0.0000
   1032 H         112.7711  167.9815  145.1773 H        66        0    0.0000
   1033 H         114.4350  169.2225  146.4843 H        66        0    0.0000
   1034 H         115.5122  169.3655  145.0988 H        66        0    0.0000
   1035 H         114.3387  166.3989  146.0440 H        66        0    0.0000
   1036 H         115.6342  166.9700  144.9834 H        66        0    0.0000
   1037 H         114.8844  165.0579  143.7977 H        66        0    0.0000
   1038 H         112.1480  165.1492  143.2878 H        66        0    0.0000
   1039 H         112.2041  165.7929  144.9259 H        66        0    0.0000
   1040 C         114.0982  160.3954  143.8860 C.3      67        0    0.0000
   1041 C         112.9817  161.4261  143.7262 C.3      67        0    0.0000
   1042 C         113.6448  162.8116  143.8138 C.3      67        0    0.0000
   1043 C         112.9077  163.7512  144.7773 C.3      67        0    0.0000
   1044 C         115.1008  162.5239  144.2114 C.3      67        0    0.0000
   1045 C         115.4064  161.1434  143.6164 C.3      67        0    0.0000
   1046 C         115.7522  161.1657  142.1163 C.3      67        0    0.0000
   1047 H         114.0980  160.0296  144.9208 H        67        0    0.0000
   1048 H         113.9525  159.5268  143.2362 H        67        0    0.0000
   1049 H         112.2095  161.2740  144.4882 H        67        0    0.0000
   1050 H         112.4972  161.3116  142.7494 H        67        0    0.0000
   1051 H         113.6371  163.2532  142.8073 H        67        0    0.0000
   1052 H         113.4292  163.7947  145.7405 H        67        0    0.0000
   1053 H         111.9062  163.3515  144.9773 H        67        0    0.0000
   1054 H         115.7838  163.3037  143.8605 H        67        0    0.0000
   1055 H         115.1943  162.4725  145.3040 H        67        0    0.0000
   1056 H         116.2256  160.6663  144.1692 H        67        0    0.0000
   1057 H         115.5335  160.2020  141.6438 H        67        0    0.0000
   1058 H         116.8291  161.3359  141.9967 H        67        0    0.0000
   1059 C         115.0000  162.2973  141.3604 C.3      68        0    0.0000
   1060 C         115.8605  163.5368  141.0764 C.3      68        0    0.0000
   1061 H         114.6802  161.8772  140.3981 H        68        0    0.0000
   1062 H         114.0866  162.5622  141.9058 H        68        0    0.0000
   1063 H         115.9807  163.7007  139.9991 H        68        0    0.0000
   1064 H         115.3330  164.4149  141.4704 H        68        0    0.0000
   1065 C         117.8139  161.6538  144.4213 C.3      69        0    0.0000
   1066 C         116.6079  162.4978  144.0001 C.3      69        0    0.0000
   1067 C         117.1671  163.7337  143.2869 C.3      69        0    0.0000
   1068 C         117.2681  163.5069  141.7667 C.3      69        0    0.0000
   1069 C         118.5159  163.9281  143.9911 C.3      69        0    0.0000
   1070 C         119.0648  162.5090  144.1591 C.3      69        0    0.0000
   1071 C         120.1337  162.4231  145.2545 C.3      69        0    0.0000
   1072 H         117.7156  161.3678  145.4747 H        69        0    0.0000
   1073 H         117.8594  160.7278  143.8366 H        69        0    0.0000
   1074 H         116.0658  162.8136  144.9005 H        69        0    0.0000
   1075 H         115.9036  161.9268  143.3864 H        69        0    0.0000
   1076 H         116.5172  164.5978  143.4756 H        69        0    0.0000
   1077 H         117.7228  162.5269  141.5780 H        69        0    0.0000
   1078 H         117.9212  164.2499  141.2967 H        69        0    0.0000
   1079 H         118.3498  164.3903  144.9730 H        69        0    0.0000
   1080 H         119.2091  164.5705  143.4399 H        69        0    0.0000
   1081 H         119.5063  162.1926  143.2036 H        69        0    0.0000
   1082 H         120.2087  161.3976  145.6345 H        69        0    0.0000
   1083 H         119.8393  163.0550  146.1007 H        69        0    0.0000
   1084 C         123.8861  161.3497  142.1930 C.3      70        0    0.0000
   1085 C         123.5691  161.7566  143.6253 C.3      70        0    0.0000
   1086 C         122.0713  162.0744  143.5666 C.3      70        0    0.0000
   1087 C         121.5260  162.8911  144.7421 C.3      70        0    0.0000
   1088 C         121.8403  162.6841  142.1700 C.3      70        0    0.0000
   1089 C         123.1211  162.3878  141.3655 C.3      70        0    0.0000
   1090 C         122.9068  162.0261  139.8926 C.3      70        0    0.0000
   1091 H         124.9613  161.3731  141.9899 H        70        0    0.0000
   1092 H         123.5274  160.3309  142.0098 H        70        0    0.0000
   1093 H         123.7919  160.9554  144.3367 H        70        0    0.0000
   1094 H         124.1658  162.6328  143.9017 H        70        0    0.0000
   1095 H         121.5400  161.1109  143.5824 H        70        0    0.0000
   1096 H         122.2407  162.8447  145.5724 H        70        0    0.0000
   1097 H         121.4562  163.9443  144.4451 H        70        0    0.0000
   1098 H         121.6693  163.7656  142.2006 H        70        0    0.0000
   1099 H         120.9440  162.2424  141.7215 H        70        0    0.0000
   1100 H         123.7216  163.3099  141.3766 H        70        0    0.0000
   1101 H         123.4938  162.7092  139.2672 H        70        0    0.0000
   1102 H         123.2976  161.0180  139.7105 H        70        0    0.0000
   1103 C         121.4196  162.0775  139.4304 C.3      71        0    0.0000
   1104 C         121.2225  162.6688  138.0272 C.3      71        0    0.0000
   1105 H         120.8871  162.7159  140.1468 H        71        0    0.0000
   1106 H         120.9737  161.0790  139.5087 H        71        0    0.0000
   1107 H         120.8381  163.6907  138.1394 H        71        0    0.0000
   1108 H         122.1752  162.7495  137.4909 H        71        0    0.0000
   1109 C         120.1851  161.8891  137.1472 C.3      72        0    0.0000
   1110 C         120.4205  162.0268  135.6362 C.3      72        0    0.0000
   1111 H         119.1968  162.3071  137.3773 H        72        0    0.0000
   1112 H         120.1590  160.8364  137.4525 H        72        0    0.0000
   1113 H         121.1071  161.2293  135.3245 H        72        0    0.0000
   1114 H         119.4918  161.8787  135.0727 H        72        0    0.0000
   1115 C         123.7512  164.1990  132.6771 C.3      73        0    0.0000
   1116 C         122.5194  164.5941  133.4959 C.3      73        0    0.0000
   1117 C         121.8162  163.2843  133.8752 C.3      73        0    0.0000
   1118 C         121.0829  163.3844  135.2157 C.3      73        0    0.0000
   1119 C         122.9529  162.2571  133.8444 C.3      73        0    0.0000
   1120 C         123.7409  162.6668  132.5958 C.3      73        0    0.0000
   1121 C         125.1522  162.0790  132.5105 C.3      73        0    0.0000
   1122 H         123.7272  164.6456  131.6772 H        73        0    0.0000
   1123 H         124.6551  164.5683  133.1762 H        73        0    0.0000
   1124 H         121.8514  165.2472  132.9241 H        73        0    0.0000
   1125 H         122.8359  165.1518  134.3854 H        73        0    0.0000
   1126 H         121.0988  163.0375  133.0790 H        73        0    0.0000
   1127 H         120.2986  164.1473  135.1432 H        73        0    0.0000
   1128 H         121.7719  163.7133  136.0025 H        73        0    0.0000
   1129 H         122.5759  161.2320  133.7720 H        73        0    0.0000
   1130 H         123.5757  162.3332  134.7446 H        73        0    0.0000
   1131 H         123.1645  162.3749  131.7058 H        73        0    0.0000
   1132 H         125.2319  161.1879  133.1441 H        73        0    0.0000
   1133 H         125.8723  162.8089  132.8994 H        73        0    0.0000
   1134 C         123.3475  163.9540  128.9179 C.3      74        0    0.0000
   1135 C         123.7251  163.3755  130.2744 C.3      74        0    0.0000
   1136 C         125.0852  162.7248  130.0018 C.3      74        0    0.0000
   1137 C         125.5541  161.7159  131.0547 C.3      74        0    0.0000
   1138 C         124.9963  162.1877  128.5600 C.3      74        0    0.0000
   1139 C         123.7379  162.8338  127.9481 C.3      74        0    0.0000
   1140 C         123.8567  163.2484  126.4783 C.3      74        0    0.0000
   1141 H         122.2818  164.1961  128.8590 H        74        0    0.0000
   1142 H         123.9157  164.8730  128.7364 H        74        0    0.0000
   1143 H         123.7866  164.1493  131.0460 H        74        0    0.0000
   1144 H         122.9728  162.6429  130.5866 H        74        0    0.0000
   1145 H         125.8300  163.5349  129.9918 H        74        0    0.0000
   1146 H         125.1439  160.7284  130.8119 H        74        0    0.0000
   1147 H         126.6456  161.6250  131.0029 H        74        0    0.0000
   1148 H         124.9055  161.0970  128.5168 H        74        0    0.0000
   1149 H         125.9128  162.4430  128.0171 H        74        0    0.0000
   1150 H         122.9396  162.0779  127.9960 H        74        0    0.0000
   1151 H         122.8781  163.1404  125.9957 H        74        0    0.0000
   1152 H         124.1181  164.3120  126.4259 H        74        0    0.0000
   1153 C         124.9080  162.4340  125.6662 C.3      75        0    0.0000
   1154 C         126.2841  163.1087  125.5740 C.3      75        0    0.0000
   1155 H         125.0334  161.4741  126.1833 H        75        0    0.0000
   1156 H         124.5090  162.2042  124.6712 H        75        0    0.0000
   1157 H         126.3542  163.7527  124.6895 H        75        0    0.0000
   1158 H         126.4022  163.7621  126.4479 H        75        0    0.0000
   1159 C         125.9755  158.7611  125.6547 C.3      76        0    0.0000
   1160 C         125.7747  160.2350  125.3056 C.3      76        0    0.0000
   1161 C         127.1520  160.7820  124.8925 C.3      76        0    0.0000
   1162 C         127.4885  162.1048  125.5934 C.3      76        0    0.0000
   1163 C         128.1344  159.6419  125.2021 C.3      76        0    0.0000
   1164 C         127.3139  158.3572  125.0310 C.3      76        0    0.0000
   1165 C         127.1484  157.9047  123.5687 C.3      76        0    0.0000
   1166 H         126.0404  158.6606  126.7457 H        76        0    0.0000
   1167 H         125.1366  158.1415  125.3224 H        76        0    0.0000
   1168 H         125.3395  160.7729  126.1551 H        76        0    0.0000
   1169 H         125.0736  160.3341  124.4685 H        76        0    0.0000
   1170 H         127.1372  160.9464  123.8058 H        76        0    0.0000
   1171 H         128.3647  162.5705  125.1277 H        76        0    0.0000
   1172 H         127.7548  161.9035  126.6381 H        76        0    0.0000
   1173 H         129.0187  159.6759  124.5582 H        76        0    0.0000
   1174 H         128.4818  159.7102  126.2413 H        76        0    0.0000
   1175 H         127.7619  157.5419  125.6133 H        76        0    0.0000
   1176 H         126.1585  158.1677  123.1809 H        76        0    0.0000
   1177 H         127.2241  156.8116  123.5185 H        76        0    0.0000
   1178 C         131.3112  159.0843  124.6524 C.3      77        0    0.0000
   1179 C         129.8144  158.7652  124.6750 C.3      77        0    0.0000
   1180 C         129.2070  159.4143  123.4184 C.3      77        0    0.0000
   1181 C         128.2448  158.5052  122.6440 C.3      77        0    0.0000
   1182 C         130.4194  159.8302  122.5793 C.3      77        0    0.0000
   1183 C         131.4955  160.1915  123.6088 C.3      77        0    0.0000
   1184 C         131.3040  161.6064  124.1870 C.3      77        0    0.0000
   1185 H         131.6867  159.3471  125.6460 H        77        0    0.0000
   1186 H         131.8582  158.1898  124.3282 H        77        0    0.0000
   1187 H         129.6629  157.6807  124.7093 H        77        0    0.0000
   1188 H         129.3481  159.1859  125.5735 H        77        0    0.0000
   1189 H         128.6747  160.3263  123.7244 H        77        0    0.0000
   1190 H         127.7539  159.0854  121.8536 H        77        0    0.0000
   1191 H         128.7961  157.6973  122.1492 H        77        0    0.0000
   1192 H         130.1848  160.6573  121.9014 H        77        0    0.0000
   1193 H         130.7672  158.9881  121.9669 H        77        0    0.0000
   1194 H         132.4876  160.1175  123.1455 H        77        0    0.0000
   1195 H         131.7998  161.7073  125.1588 H        77        0    0.0000
   1196 H         130.2359  161.7899  124.3538 H        77        0    0.0000
   1197 C         133.0112  160.7966  120.1635 C.3      78        0    0.0000
   1198 C         133.3287  161.6631  121.3725 C.3      78        0    0.0000
   1199 C         131.9661  162.2516  121.7596 C.3      78        0    0.0000
   1200 C         131.8383  162.7026  123.2202 C.3      78        0    0.0000
   1201 C         130.9184  161.2208  121.2912 C.3      78        0    0.0000
   1202 C         131.7033  160.1122  120.5663 C.3      78        0    0.0000
   1203 C         130.9806  159.4963  119.3658 C.3      78        0    0.0000
   1204 H         132.8727  161.4225  119.2735 H        78        0    0.0000
   1205 H         133.8081  160.0761  119.9551 H        78        0    0.0000
   1206 H         133.7510  161.0404  122.1685 H        78        0    0.0000
   1207 H         134.0586  162.4436  121.1354 H        78        0    0.0000
   1208 H         131.8181  163.1512  121.1438 H        78        0    0.0000
   1209 H         132.8201  163.0364  123.5766 H        78        0    0.0000
   1210 H         131.1737  163.5733  123.2694 H        78        0    0.0000
   1211 H         130.2108  161.7142  120.6132 H        78        0    0.0000
   1212 H         130.3293  160.8026  122.1142 H        78        0    0.0000
   1213 H         131.9378  159.3243  121.2968 H        78        0    0.0000
   1214 H         130.5990  158.5013  119.6237 H        78        0    0.0000
   1215 H         130.1090  160.1117  119.1129 H        78        0    0.0000
   1216 C         130.5732  156.7005  115.7692 C.3      79        0    0.0000
   1217 C         130.7572  157.2553  117.1748 C.3      79        0    0.0000
   1218 C         131.2395  158.6866  116.9169 C.3      79        0    0.0000
   1219 C         131.8937  159.3854  118.1126 C.3      79        0    0.0000
   1220 C         132.1034  158.6003  115.6434 C.3      79        0    0.0000
   1221 C         131.8151  157.2145  115.0337 C.3      79        0    0.0000
   1222 C         131.7396  157.1686  113.5045 C.3      79        0    0.0000
   1223 H         130.5158  155.6076  115.7653 H        79        0    0.0000
   1224 H         129.6461  157.0915  115.3356 H        79        0    0.0000
   1225 H         129.8255  157.2324  117.7486 H        79        0    0.0000
   1226 H         131.5029  156.6598  117.7130 H        79        0    0.0000
   1227 H         130.3505  159.2805  116.6559 H        79        0    0.0000
   1228 H         132.8062  158.8438  118.3886 H        79        0    0.0000
   1229 H         132.2042  160.3934  117.8128 H        79        0    0.0000
   1230 H         133.1752  158.6941  115.8489 H        79        0    0.0000
   1231 H         131.8450  159.4241  114.9694 H        79        0    0.0000
   1232 H         132.6514  156.5611  115.3249 H        79        0    0.0000
   1233 H         132.6705  157.5711  113.0878 H        79        0    0.0000
   1234 H         131.6753  156.1232  113.1800 H        79        0    0.0000
   1235 C         130.5387  157.9554  112.8988 C.3      80        0    0.0000
   1236 C         130.2667  157.6385  111.4213 C.3      80        0    0.0000
   1237 H         130.7862  159.0218  112.9783 H        80        0    0.0000
   1238 H         129.6445  157.7947  113.5124 H        80        0    0.0000
   1239 H         131.1661  157.8952  110.8469 H        80        0    0.0000
   1240 H         130.0927  156.5668  111.2687 H        80        0    0.0000
   1241 C         127.3316  157.8773  107.5116 C.3      81        0    0.0000
   1242 C         127.7958  157.3848  108.8848 C.3      81        0    0.0000
   1243 C         128.9794  158.2757  109.2843 C.3      81        0    0.0000
   1244 C         129.0837  158.4595  110.8008 C.3      81        0    0.0000
   1245 C         128.7233  159.5672  108.5006 C.3      81        0    0.0000
   1246 C         128.2541  159.0452  107.1385 C.3      81        0    0.0000
   1247 C         127.5502  160.0865  106.2641 C.3      81        0    0.0000
   1248 H         127.3840  157.0805  106.7619 H        81        0    0.0000
   1249 H         126.2845  158.1969  107.5733 H        81        0    0.0000
   1250 H         128.0910  156.3305  108.8531 H        81        0    0.0000
   1251 H         126.9700  157.4695  109.6013 H        81        0    0.0000
   1252 H         129.9012  157.8116  108.9040 H        81        0    0.0000
   1253 H         128.1482  158.1323  111.2703 H        81        0    0.0000
   1254 H         129.2070  159.5205  111.0477 H        81        0    0.0000
   1255 H         129.6265  160.1796  108.4149 H        81        0    0.0000
   1256 H         127.9420  160.1698  108.9808 H        81        0    0.0000
   1257 H         129.1227  158.6375  106.6010 H        81        0    0.0000
   1258 H         127.1586  160.9015  106.8840 H        81        0    0.0000
   1259 H         126.6878  159.6219  105.7712 H        81        0    0.0000
   1260 C         128.4870  160.6719  105.1721 C.3      82        0    0.0000
   1261 C         127.7606  161.5114  104.1115 C.3      82        0    0.0000
   1262 H         129.2063  161.3218  105.6868 H        82        0    0.0000
   1263 H         129.0681  159.8640  104.7121 H        82        0    0.0000
   1264 H         127.1268  162.2770  104.5742 H        82        0    0.0000
   1265 H         128.5176  162.0448  103.5224 H        82        0    0.0000
   1266 C         125.5937  163.8889  101.8200 C.3      83        0    0.0000
   1267 C         125.2650  162.5561  102.4971 C.3      83        0    0.0000
   1268 C         126.3058  161.5391  101.9954 C.3      83        0    0.0000
   1269 C         126.9133  160.6649  103.0994 C.3      83        0    0.0000
   1270 C         127.3590  162.3916  101.2804 C.3      83        0    0.0000
   1271 C         126.5685  163.5611  100.6838 C.3      83        0    0.0000
   1272 C         125.8606  163.1818   99.3692 C.3      83        0    0.0000
   1273 H         124.6909  164.4118  101.4902 H        83        0    0.0000
   1274 H         126.0950  164.5403  102.5473 H        83        0    0.0000
   1275 H         125.2773  162.6757  103.5860 H        83        0    0.0000
   1276 H         124.2575  162.2252  102.2190 H        83        0    0.0000
   1277 H         125.8243  160.8932  101.2473 H        83        0    0.0000
   1278 H         126.1082  160.1659  103.6518 H        83        0    0.0000
   1279 H         127.5362  159.8754  102.6635 H        83        0    0.0000
   1280 H         127.9062  161.8188  100.5247 H        83        0    0.0000
   1281 H         128.0928  162.7758  102.0008 H        83        0    0.0000
   1282 H         127.2433  164.4077  100.5041 H        83        0    0.0000
   1283 H         124.8504  163.6039   99.3277 H        83        0    0.0000
   1284 H         125.7529  162.0919   99.3152 H        83        0    0.0000
   1285 C         125.2834  162.7408   94.8018 C.3      84        0    0.0000
   1286 C         125.0911  162.6909   96.3195 C.3      84        0    0.0000
   1287 C         126.4990  162.6876   96.9417 C.3      84        0    0.0000
   1288 C         126.6663  163.6510   98.1232 C.3      84        0    0.0000
   1289 C         127.4327  163.0269   95.7754 C.3      84        0    0.0000
   1290 C         126.7574  162.4069   94.5475 C.3      84        0    0.0000
   1291 C         127.0241  160.8941   94.4315 C.3      84        0    0.0000
   1292 H         124.5845  162.0796   94.2807 H        84        0    0.0000
   1293 H         125.0807  163.7617   94.4535 H        84        0    0.0000
   1294 H         124.4824  163.5404   96.6483 H        84        0    0.0000
   1295 H         124.5554  161.7784   96.6063 H        84        0    0.0000
   1296 H         126.7266  161.6648   97.2746 H        84        0    0.0000
   1297 H         127.7266  163.7099   98.3963 H        84        0    0.0000
   1298 H         126.3546  164.6628   97.8393 H        84        0    0.0000
   1299 H         128.4472  162.6490   95.9390 H        84        0    0.0000
   1300 H         127.5012  164.1147   95.6450 H        84        0    0.0000
   1301 H         127.1113  162.9109   93.6391 H        84        0    0.0000
   1302 H         126.1198  160.3549   94.1282 H        84        0    0.0000
   1303 H         127.3163  160.4999   95.4120 H        84        0    0.0000
   1304 C         128.0962  160.0188   89.7986 C.3      85        0    0.0000
   1305 C         127.3124  159.9414   91.1079 C.3      85        0    0.0000
   1306 C         127.8424  161.0720   92.0067 C.3      85        0    0.0000
   1307 C         128.1697  160.5852   93.4245 C.3      85        0    0.0000
   1308 C         129.0495  161.6426   91.2464 C.3      85        0    0.0000
   1309 C         128.7261  161.4136   89.7645 C.3      85        0    0.0000
   1310 C         127.7694  162.4570   89.1592 C.3      85        0    0.0000
   1311 H         128.8922  159.2633   89.8164 H        85        0    0.0000
   1312 H         127.4669  159.8048   88.9290 H        85        0    0.0000
   1313 H         127.4220  158.9498   91.5606 H        85        0    0.0000
   1314 H         126.2431  160.0926   90.9189 H        85        0    0.0000
   1315 H         127.0662  161.8481   92.0650 H        85        0    0.0000
   1316 H         129.1032  161.0389   93.7770 H        85        0    0.0000
   1317 H         128.3320  159.5007   93.4065 H        85        0    0.0000
   1318 H         129.2279  162.6946   91.4897 H        85        0    0.0000
   1319 H         129.9601  161.0866   91.5051 H        85        0    0.0000
   1320 H         129.6516  161.3869   89.1752 H        85        0    0.0000
   1321 H         127.1694  162.9437   89.9356 H        85        0    0.0000
   1322 H         127.0636  161.9529   88.4879 H        85        0    0.0000
   1323 C         131.4541  162.8174   90.5023 C.3      86        0    0.0000
   1324 C         130.0329  163.3808   90.4258 C.3      86        0    0.0000
   1325 C         129.8535  163.9303   88.9992 C.3      86        0    0.0000
   1326 C         128.5278  163.5366   88.3362 C.3      86        0    0.0000
   1327 C         131.0694  163.4026   88.2309 C.3      86        0    0.0000
   1328 C         132.1929  163.3555   89.2721 C.3      86        0    0.0000
   1329 C         132.8345  164.7361   89.5070 C.3      86        0    0.0000
   1330 H         131.9393  163.0636   91.4515 H        86        0    0.0000
   1331 H         131.4037  161.7227   90.4413 H        86        0    0.0000
   1332 H         129.3062  162.6000   90.6757 H        86        0    0.0000
   1333 H         129.9033  164.1892   91.1549 H        86        0    0.0000
   1334 H         129.9252  165.0266   89.0403 H        86        0    0.0000
   1335 H         127.8873  164.4225   88.2507 H        86        0    0.0000
   1336 H         128.7027  163.1715   87.3176 H        86        0    0.0000
   1337 H         131.3145  164.0316   87.3690 H        86        0    0.0000
   1338 H         130.8746  162.3891   87.8569 H        86        0    0.0000
   1339 H         132.9641  162.6445   88.9493 H        86        0    0.0000
   1340 H         133.6664  164.6703   90.2169 H        86        0    0.0000
   1341 H         132.0922  165.4121   89.9479 H        86        0    0.0000
   1342 C         133.3397  165.3717   88.1793 C.3      87        0    0.0000
   1343 C         134.8467  165.6651   88.1620 C.3      87        0    0.0000
   1344 H         133.1241  164.6504   87.3806 H        87        0    0.0000
   1345 H         132.7555  166.2718   87.9548 H        87        0    0.0000
   1346 H         135.0603  166.6769   88.5261 H        87        0    0.0000
   1347 H         135.3366  164.9716   88.8575 H        87        0    0.0000
   1348 C         135.5209  165.4539   86.7622 C.3      88        0    0.0000
   1349 C         136.3634  164.1743   86.6623 C.3      88        0    0.0000
   1350 H         134.7091  165.3853   86.0267 H        88        0    0.0000
   1351 H         136.1091  166.3405   86.4979 H        88        0    0.0000
   1352 H         137.4065  164.3604   86.9439 H        88        0    0.0000
   1353 H         135.9680  163.4490   87.3850 H        88        0    0.0000
   1354 C         133.0532  161.5866   84.7794 C.3      89        0    0.0000
   1355 C         134.1781  162.0785   85.6795 C.3      89        0    0.0000
   1356 C         134.9019  163.0991   84.7950 C.3      89        0    0.0000
   1357 C         136.3110  163.4852   85.2548 C.3      89        0    0.0000
   1358 C         134.8003  162.5391   83.3627 C.3      89        0    0.0000
   1359 C         133.7497  161.4131   83.4257 C.3      89        0    0.0000
   1360 C         132.8172  161.3116   82.2148 C.3      89        0    0.0000
   1361 H         132.6197  160.6493   85.1419 H        89        0    0.0000
   1362 H         132.2561  162.3371   84.7396 H        89        0    0.0000
   1363 H         133.7968  162.5298   86.6007 H        89        0    0.0000
   1364 H         134.8258  161.2389   85.9546 H        89        0    0.0000
   1365 H         134.3024  164.0217   84.8167 H        89        0    0.0000
   1366 H         136.9385  162.5863   85.2791 H        89        0    0.0000
   1367 H         136.7569  164.1607   84.5151 H        89        0    0.0000
   1368 H         135.7495  162.1339   82.9957 H        89        0    0.0000
   1369 H         134.5212  163.3438   82.6740 H        89        0    0.0000
   1370 H         134.3057  160.4646   83.4723 H        89        0    0.0000
   1371 H         132.1257  160.4740   82.3647 H        89        0    0.0000
   1372 H         132.2048  162.2192   82.1569 H        89        0    0.0000
   1373 C         133.5526  161.1163   80.8549 C.3      90        0    0.0000
   1374 C         133.6866  162.4028   80.0277 C.3      90        0    0.0000
   1375 H         134.5623  160.7557   81.0897 H        90        0    0.0000
   1376 H         133.0619  160.3219   80.2803 H        90        0    0.0000
   1377 H         133.5874  162.1995   78.9550 H        90        0    0.0000
   1378 H         132.8579  163.0696   80.2986 H        90        0    0.0000
   1379 C         137.2985  160.3609   79.2543 C.3      91        0    0.0000
   1380 C         136.1363  160.8705   80.0928 C.3      91        0    0.0000
   1381 C         136.2939  162.3952   80.0348 C.3      91        0    0.0000
   1382 C         135.0121  163.1968   80.2947 C.3      91        0    0.0000
   1383 C         136.9994  162.6910   78.6953 C.3      91        0    0.0000
   1384 C         137.3092  161.3215   78.0635 C.3      91        0    0.0000
   1385 C         138.6248  161.2593   77.2836 C.3      91        0    0.0000
   1386 H         138.2341  160.4251   79.8232 H        91        0    0.0000
   1387 H         137.1559  159.3207   78.9457 H        91        0    0.0000
   1388 H         135.1916  160.5358   79.6509 H        91        0    0.0000
   1389 H         136.1773  160.4940   81.1197 H        91        0    0.0000
   1390 H         137.0008  162.6755   80.8301 H        91        0    0.0000
   1391 H         135.0120  163.5396   81.3363 H        91        0    0.0000
   1392 H         135.0190  164.0964   79.6680 H        91        0    0.0000
   1393 H         137.9200  163.2540   78.8935 H        91        0    0.0000
   1394 H         136.3944  163.3017   78.0168 H        91        0    0.0000
   1395 H         136.4755  161.0542   77.3980 H        91        0    0.0000
   1396 H         139.3008  162.0551   77.6180 H        91        0    0.0000
   1397 H         139.1280  160.3087   77.4972 H        91        0    0.0000
   1398 C         138.4140  161.3782   75.7480 C.3      92        0    0.0000
   1399 C         139.7183  161.4931   74.9463 C.3      92        0    0.0000
   1400 H         137.8285  162.2909   75.5784 H        92        0    0.0000
   1401 H         137.8002  160.5417   75.3935 H        92        0    0.0000
   1402 H         140.3168  162.3023   75.3839 H        92        0    0.0000
   1403 H         140.3188  160.5795   75.0284 H        92        0    0.0000
   1404 C         139.5074  161.8526   73.4347 C.3      93        0    0.0000
   1405 C         140.8099  161.9380   72.6261 C.3      93        0    0.0000
   1406 H         139.0248  162.8380   73.4077 H        93        0    0.0000
   1407 H         138.8024  161.1459   72.9817 H        93        0    0.0000
   1408 H         141.3858  162.7953   72.9977 H        93        0    0.0000
   1409 H         141.4343  161.0502   72.7808 H        93        0    0.0000
   1410 C         143.6813  162.1462   69.1077 C.3      94        0    0.0000
   1411 C         143.0585  161.9128   70.4832 C.3      94        0    0.0000
   1412 C         141.6228  161.4169   70.2389 C.3      94        0    0.0000
   1413 C         140.5926  162.1702   71.0907 C.3      94        0    0.0000
   1414 C         141.4106  161.5642   68.7243 C.3      94        0    0.0000
   1415 C         142.8051  161.3825   68.1115 C.3      94        0    0.0000
   1416 C         143.2463  159.9140   67.9723 C.3      94        0    0.0000
   1417 H         143.6402  163.2184   68.8769 H        94        0    0.0000
   1418 H         144.7343  161.8492   69.0769 H        94        0    0.0000
   1419 H         143.0969  162.8303   71.0806 H        94        0    0.0000
   1420 H         143.6233  161.1486   71.0302 H        94        0    0.0000
   1421 H         141.5869  160.3486   70.4955 H        94        0    0.0000
   1422 H         139.5757  161.8700   70.8124 H        94        0    0.0000
   1423 H         140.6719  163.2450   70.8882 H        94        0    0.0000
   1424 H         140.6764  160.8488   68.3412 H        94        0    0.0000
   1425 H         141.0429  162.5711   68.4874 H        94        0    0.0000
   1426 H         142.8527  161.8689   67.1288 H        94        0    0.0000
   1427 H         142.7022  159.2678   68.6694 H        94        0    0.0000
   1428 H         144.3087  159.8304   68.2319 H        94        0    0.0000
   1429 C         146.0669  158.0614   66.5970 C.3      95        0    0.0000
   1430 C         145.5972  159.5182   66.5634 C.3      95        0    0.0000
   1431 C         144.3434  159.5529   65.6827 C.3      95        0    0.0000
   1432 C         143.0629  159.3841   66.5220 C.3      95        0    0.0000
   1433 C         144.6119  158.4091   64.6964 C.3      95        0    0.0000
   1434 C         145.2266  157.3022   65.5567 C.3      95        0    0.0000
   1435 C         146.0151  156.2859   64.7229 C.3      95        0    0.0000
   1436 H         147.1407  158.0138   66.3831 H        95        0    0.0000
   1437 H         145.9151  157.6304   67.5932 H        95        0    0.0000
   1438 H         146.3812  160.1317   66.1015 H        95        0    0.0000
   1439 H         145.4297  159.9171   67.5690 H        95        0    0.0000
   1440 H         144.2930  160.5084   65.1448 H        95        0    0.0000
   1441 H         142.8046  158.3195   66.5750 H        95        0    0.0000
   1442 H         142.2113  159.8891   66.0536 H        95        0    0.0000
   1443 H         145.3309  158.7449   63.9378 H        95        0    0.0000
   1444 H         143.7165  158.0660   64.1696 H        95        0    0.0000
   1445 H         144.4146  156.7800   66.0820 H        95        0    0.0000
   1446 H         145.3379  155.5405   64.2900 H        95        0    0.0000
   1447 H         146.7112  155.7432   65.3734 H        95        0    0.0000
   1448 C         147.3412  160.6678   64.2522 C.3      96        0    0.0000
   1449 C         147.0509  159.2679   64.7716 C.3      96        0    0.0000
   1450 C         146.6435  158.4950   63.5108 C.3      96        0    0.0000
   1451 C         146.8259  156.9739   63.5873 C.3      96        0    0.0000
   1452 C         147.3707  159.1909   62.3418 C.3      96        0    0.0000
   1453 C         148.1027  160.3999   62.9524 C.3      96        0    0.0000
   1454 C         148.1591  161.6361   62.0514 C.3      96        0    0.0000
   1455 H         146.4035  161.2029   64.0585 H        96        0    0.0000
   1456 H         147.9301  161.2547   64.9635 H        96        0    0.0000
   1457 H         147.9533  158.8553   65.2357 H        96        0    0.0000
   1458 H         146.2572  159.2682   65.5253 H        96        0    0.0000
   1459 H         145.5679  158.6706   63.3600 H        96        0    0.0000
   1460 H         146.5311  156.5316   62.6282 H        96        0    0.0000
   1461 H         147.8899  156.7471   63.7238 H        96        0    0.0000
   1462 H         146.6287  159.5098   61.5992 H        96        0    0.0000
   1463 H         148.0762  158.5337   61.8227 H        96        0    0.0000
   1464 H         149.1251  160.0875   63.2106 H        96        0    0.0000
   1465 H         147.3550  162.3332   62.3149 H        96        0    0.0000
   1466 H         149.1037  162.1662   62.2223 H        96        0    0.0000
   1467 C         146.5322  157.8253   60.2116 C.3      97        0    0.0000
   1468 C         146.8502  159.0440   61.0642 C.3      97        0    0.0000
   1469 C         147.9258  159.7780   60.2535 C.3      97        0    0.0000
   1470 C         148.0533  161.2792   60.5421 C.3      97        0    0.0000
   1471 C         147.6624  159.4074   58.7794 C.3      97        0    0.0000
   1472 C         146.4996  158.3984   58.7933 C.3      97        0    0.0000
   1473 C         146.5886  157.3043   57.7265 C.3      97        0    0.0000
   1474 H         147.3226  157.0720   60.3161 H        97        0    0.0000
   1475 H         145.5805  157.3648   60.4939 H        97        0    0.0000
   1476 H         145.9452  159.6477   61.1919 H        97        0    0.0000
   1477 H         147.2088  158.7639   62.0597 H        97        0    0.0000
   1478 H         148.8932  159.3280   60.5219 H        97        0    0.0000
   1479 H         148.9405  161.6664   60.0270 H        97        0    0.0000
   1480 H         147.1891  161.8009   60.1142 H        97        0    0.0000
   1481 H         148.5705  158.9606   58.3560 H        97        0    0.0000
   1482 H         147.4153  160.2734   58.1563 H        97        0    0.0000
   1483 H         145.5599  158.9561   58.6689 H        97        0    0.0000
   1484 H         147.0980  156.4218   58.1314 H        97        0    0.0000
   1485 H         145.5768  156.9844   57.4503 H        97        0    0.0000
   1486 C         149.6791  160.5538   57.4534 C.3      98        0    0.0000
   1487 C         148.9356  159.2585   57.7418 C.3      98        0    0.0000
   1488 C         147.9239  159.1819   56.5966 C.3      98        0    0.0000
   1489 C         147.3289  157.7798   56.4449 C.3      98        0    0.0000
   1490 C         148.7161  159.6809   55.3743 C.3      98        0    0.0000
   1491 C         149.8844  160.5186   55.9336 C.3      98        0    0.0000
   1492 C         150.0918  161.8853   55.2687 C.3      98        0    0.0000
   1493 H         150.6298  160.6080   57.9931 H        98        0    0.0000
   1494 H         149.0663  161.4055   57.7679 H        98        0    0.0000
   1495 H         149.6287  158.4089   57.7152 H        98        0    0.0000
   1496 H         148.4503  159.2744   58.7224 H        98        0    0.0000
   1497 H         147.1180  159.9020   56.8003 H        98        0    0.0000
   1498 H         146.6352  157.7530   55.5962 H        98        0    0.0000
   1499 H         148.1317  157.0682   56.2177 H        98        0    0.0000
   1500 H         149.1232  158.8422   54.7959 H        98        0    0.0000
   1501 H         148.0671  160.2468   54.6977 H        98        0    0.0000
   1502 H         150.8020  159.9410   55.7468 H        98        0    0.0000
   1503 H         151.0771  162.2750   55.5508 H        98        0    0.0000
   1504 H         149.3504  162.5896   55.6645 H        98        0    0.0000
   1505 C         148.5958  158.9736   51.7043 C.3      99        0    0.0000
   1506 C         148.4095  160.0361   52.7767 C.3      99        0    0.0000
   1507 C         149.8440  160.4673   53.1071 C.3      99        0    0.0000
   1508 C         149.9830  161.8680   53.7169 C.3      99        0    0.0000
   1509 C         150.6602  160.2211   51.8215 C.3      99        0    0.0000
   1510 C         149.6912  159.5698   50.8178 C.3      99        0    0.0000
   1511 C         150.3273  158.5209   49.9023 C.3      99        0    0.0000
   1512 H         148.9232  158.0300   52.1575 H        99        0    0.0000
   1513 H         147.6716  158.7849   51.1497 H        99        0    0.0000
   1514 H         147.8123  160.8615   52.3744 H        99        0    0.0000
   1515 H         147.8882  159.6429   53.6551 H        99        0    0.0000
   1516 H         150.2258  159.7624   53.8607 H        99        0    0.0000
   1517 H         150.8732  162.3518   53.2974 H        99        0    0.0000
   1518 H         149.1229  162.4771   53.4149 H        99        0    0.0000
   1519 H         151.4990  159.5532   52.0538 H        99        0    0.0000
   1520 H         151.0910  161.1373   51.4040 H        99        0    0.0000
   1521 H         149.2435  160.3669   50.2065 H        99        0    0.0000
   1522 H         149.5915  158.1575   49.1750 H        99        0    0.0000
   1523 H         151.1361  158.9858   49.3260 H        99        0    0.0000
   1524 C         151.2102  155.9589   54.0892 C.3     100        0    0.0000
   1525 C         151.8361  156.8589   53.0249 C.3     100        0    0.0000
   1526 C         150.6745  157.4428   52.2024 C.3     100        0    0.0000
   1527 C         150.9069  157.3134   50.6912 C.3     100        0    0.0000
   1528 C         149.4263  156.7040   52.7093 C.3     100        0    0.0000
   1529 C         149.7364  156.3645   54.1727 C.3     100        0    0.0000
   1530 C         149.5210  157.5338   55.1507 C.3     100        0    0.0000
   1531 H         151.2794  154.9152   53.7567 H       100        0    0.0000
   1532 H         151.7349  156.0283   55.0473 H       100        0    0.0000
   1533 H         152.5475  156.2913   52.4150 H       100        0    0.0000
   1534 H         152.3966  157.6732   53.4991 H       100        0    0.0000
   1535 H         150.5806  158.5072   52.4603 H       100        0    0.0000
   1536 H         150.4667  156.3821   50.3165 H       100        0    0.0000
   1537 H         151.9842  157.2560   50.4943 H       100        0    0.0000
   1538 H         148.5182  157.3030   52.5903 H       100        0    0.0000
   1539 H         149.2810  155.7720   52.1476 H       100        0    0.0000
   1540 H         149.1347  155.5060   54.4975 H       100        0    0.0000
   1541 H         149.9968  158.4503   54.7855 H       100        0    0.0000
   1542 H         149.9967  157.2947   56.1096 H       100        0    0.0000
   1543 H         148.4636  157.7221   55.3371 H       100        0    0.0000
   1544 H         217.5146   93.4112  100.6996 H         0        0    0.0000
@<TRIPOS>BOND
     1     1     2      1
     2     1     6      1
     3     1     8      1
     4     1     9      1
     5     2     3      1
     6     2    10      1
     7     2    11      1
     8     3     4      1
     9     3     5      1
    10     3    12      1
    11     4    13      1
    12     4    14      1
    13     4  1544      H
    14     5     6      1
    15     5    15      1
    16     5    16      1
    17     6     7      1
    18     6    17      1
    19     7    18      1
    20     7    19      1
    21     7    23      1
    22    20    21      1
    23    20    25      1
    24    20    27      1
    25    20    28      1
    26    21    22      1
    27    21    29      1
    28    21    30      1
    29    22    23      1
    30    22    24      1
    31    22    31      1
    32    23    32      1
    33    23    33      1
    34    24    25      1
    35    24    34      1
    36    24    35      1
    37    25    26      1
    38    25    36      1
    39    26    37      1
    40    26    38      1
    41    26    39      1
    42    39    40      1
    43    39    41      1
    44    39    42      1
    45    40    43      1
    46    40    44      1
    47    40    48      1
    48    45    46      1
    49    45    50      1
    50    45    52      1
    51    45    53      1
    52    46    47      1
    53    46    54      1
    54    46    55      1
    55    47    48      1
    56    47    49      1
    57    47    56      1
    58    48    57      1
    59    48    58      1
    60    49    50      1
    61    49    59      1
    62    49    60      1
    63    50    51      1
    64    50    61      1
    65    51    62      1
    66    51    63      1
    67    51    64      1
    68    64    65      1
    69    64    66      1
    70    64    67      1
    71    65    68      1
    72    65    69      1
    73    65    73      1
    74    70    71      1
    75    70    75      1
    76    70    77      1
    77    70    78      1
    78    71    72      1
    79    71    79      1
    80    71    80      1
    81    72    73      1
    82    72    74      1
    83    72    81      1
    84    73    82      1
    85    73    83      1
    86    74    75      1
    87    74    84      1
    88    74    85      1
    89    75    76      1
    90    75    86      1
    91    76    87      1
    92    76    88      1
    93    76    92      1
    94    89    90      1
    95    89    94      1
    96    89    96      1
    97    89    97      1
    98    90    91      1
    99    90    98      1
   100    90    99      1
   101    91    92      1
   102    91    93      1
   103    91   100      1
   104    92   101      1
   105    92   102      1
   106    93    94      1
   107    93   103      1
   108    93   104      1
   109    94    95      1
   110    94   105      1
   111    95   106      1
   112    95   107      1
   113    95   108      1
   114   108   109      1
   115   108   110      1
   116   108   111      1
   117   109   112      1
   118   109   113      1
   119   109   114      1
   120   114   115      1
   121   114   116      1
   122   114   117      1
   123   115   118      1
   124   115   119      1
   125   115   120      1
   126   120   121      1
   127   120   122      1
   128   120   123      1
   129   121   124      1
   130   121   125      1
   131   121   126      1
   132   126   127      1
   133   126   128      1
   134   126   129      1
   135   127   130      1
   136   127   131      1
   137   127   135      1
   138   132   133      1
   139   132   137      1
   140   132   139      1
   141   132   140      1
   142   133   134      1
   143   133   141      1
   144   133   142      1
   145   134   135      1
   146   134   136      1
   147   134   143      1
   148   135   144      1
   149   135   145      1
   150   136   137      1
   151   136   146      1
   152   136   147      1
   153   137   138      1
   154   137   148      1
   155   138   149      1
   156   138   150      1
   157   138   154      1
   158   151   152      1
   159   151   156      1
   160   151   158      1
   161   151   159      1
   162   152   153      1
   163   152   160      1
   164   152   161      1
   165   153   154      1
   166   153   155      1
   167   153   162      1
   168   154   163      1
   169   154   164      1
   170   155   156      1
   171   155   165      1
   172   155   166      1
   173   156   157      1
   174   156   167      1
   175   157   168      1
   176   157   169      1
   177   157   170      1
   178   170   171      1
   179   170   172      1
   180   170   173      1
   181   171   174      1
   182   171   175      1
   183   171   179      1
   184   176   177      1
   185   176   181      1
   186   176   183      1
   187   176   184      1
   188   177   178      1
   189   177   185      1
   190   177   186      1
   191   178   179      1
   192   178   180      1
   193   178   187      1
   194   179   188      1
   195   179   189      1
   196   180   181      1
   197   180   190      1
   198   180   191      1
   199   181   182      1
   200   181   192      1
   201   182   193      1
   202   182   194      1
   203   182   195      1
   204   195   196      1
   205   195   197      1
   206   195   198      1
   207   196   199      1
   208   196   200      1
   209   196   204      1
   210   201   202      1
   211   201   206      1
   212   201   208      1
   213   201   209      1
   214   202   203      1
   215   202   210      1
   216   202   211      1
   217   203   204      1
   218   203   205      1
   219   203   212      1
   220   204   213      1
   221   204   214      1
   222   205   206      1
   223   205   215      1
   224   205   216      1
   225   206   207      1
   226   206   217      1
   227   207   218      1
   228   207   219      1
   229   207   223      1
   230   220   221      1
   231   220   225      1
   232   220   227      1
   233   220   228      1
   234   221   222      1
   235   221   229      1
   236   221   230      1
   237   222   223      1
   238   222   224      1
   239   222   231      1
   240   223   232      1
   241   223   233      1
   242   224   225      1
   243   224   234      1
   244   224   235      1
   245   225   226      1
   246   225   236      1
   247   226   237      1
   248   226   238      1
   249   226   242      1
   250   239   240      1
   251   239   244      1
   252   239   246      1
   253   239   247      1
   254   240   241      1
   255   240   248      1
   256   240   249      1
   257   241   242      1
   258   241   243      1
   259   241   250      1
   260   242   251      1
   261   242   252      1
   262   243   244      1
   263   243   253      1
   264   243   254      1
   265   244   245      1
   266   244   255      1
   267   245   256      1
   268   245   257      1
   269   245   261      1
   270   258   259      1
   271   258   263      1
   272   258   265      1
   273   258   266      1
   274   259   260      1
   275   259   267      1
   276   259   268      1
   277   260   261      1
   278   260   262      1
   279   260   269      1
   280   261   270      1
   281   261   271      1
   282   262   263      1
   283   262   272      1
   284   262   273      1
   285   263   264      1
   286   263   274      1
   287   264   275      1
   288   264   276      1
   289   264   277      1
   290   277   278      1
   291   277   279      1
   292   277   280      1
   293   278   281      1
   294   278   282      1
   295   278   286      1
   296   283   284      1
   297   283   288      1
   298   283   290      1
   299   283   291      1
   300   284   285      1
   301   284   292      1
   302   284   293      1
   303   285   286      1
   304   285   287      1
   305   285   294      1
   306   286   295      1
   307   286   296      1
   308   287   288      1
   309   287   297      1
   310   287   298      1
   311   288   289      1
   312   288   299      1
   313   289   300      1
   314   289   301      1
   315   289   305      1
   316   302   303      1
   317   302   307      1
   318   302   309      1
   319   302   310      1
   320   303   304      1
   321   303   311      1
   322   303   312      1
   323   304   305      1
   324   304   306      1
   325   304   313      1
   326   305   314      1
   327   305   315      1
   328   306   307      1
   329   306   316      1
   330   306   317      1
   331   307   308      1
   332   307   318      1
   333   308   319      1
   334   308   320      1
   335   308   324      1
   336   321   322      1
   337   321   326      1
   338   321   328      1
   339   321   329      1
   340   322   323      1
   341   322   330      1
   342   322   331      1
   343   323   324      1
   344   323   325      1
   345   323   332      1
   346   324   333      1
   347   324   334      1
   348   325   326      1
   349   325   335      1
   350   325   336      1
   351   326   327      1
   352   326   337      1
   353   327   338      1
   354   327   339      1
   355   327   343      1
   356   340   341      1
   357   340   345      1
   358   340   347      1
   359   340   348      1
   360   341   342      1
   361   341   349      1
   362   341   350      1
   363   342   343      1
   364   342   344      1
   365   342   351      1
   366   343   352      1
   367   343   353      1
   368   344   345      1
   369   344   354      1
   370   344   355      1
   371   345   346      1
   372   345   356      1
   373   346   357      1
   374   346   358      1
   375   346   362      1
   376   359   360      1
   377   359   364      1
   378   359   366      1
   379   359   367      1
   380   360   361      1
   381   360   368      1
   382   360   369      1
   383   361   362      1
   384   361   363      1
   385   361   370      1
   386   362   371      1
   387   362   372      1
   388   363   364      1
   389   363   373      1
   390   363   374      1
   391   364   365      1
   392   364   375      1
   393   365   376      1
   394   365   377      1
   395   365   381      1
   396   378   379      1
   397   378   383      1
   398   378   385      1
   399   378   386      1
   400   379   380      1
   401   379   387      1
   402   379   388      1
   403   380   381      1
   404   380   382      1
   405   380   389      1
   406   381   390      1
   407   381   391      1
   408   382   383      1
   409   382   392      1
   410   382   393      1
   411   383   384      1
   412   383   394      1
   413   384   395      1
   414   384   396      1
   415   384   397      1
   416   397   398      1
   417   397   399      1
   418   397   400      1
   419   398   401      1
   420   398   402      1
   421   398   406      1
   422   403   404      1
   423   403   408      1
   424   403   410      1
   425   403   411      1
   426   404   405      1
   427   404   412      1
   428   404   413      1
   429   405   406      1
   430   405   407      1
   431   405   414      1
   432   406   415      1
   433   406   416      1
   434   407   408      1
   435   407   417      1
   436   407   418      1
   437   408   409      1
   438   408   419      1
   439   409   420      1
   440   409   421      1
   441   409   425      1
   442   422   423      1
   443   422   427      1
   444   422   429      1
   445   422   430      1
   446   423   424      1
   447   423   431      1
   448   423   432      1
   449   424   425      1
   450   424   426      1
   451   424   433      1
   452   425   434      1
   453   425   435      1
   454   426   427      1
   455   426   436      1
   456   426   437      1
   457   427   428      1
   458   427   438      1
   459   428   439      1
   460   428   440      1
   461   428   444      1
   462   441   442      1
   463   441   446      1
   464   441   448      1
   465   441   449      1
   466   442   443      1
   467   442   450      1
   468   442   451      1
   469   443   444      1
   470   443   445      1
   471   443   452      1
   472   444   453      1
   473   444   454      1
   474   445   446      1
   475   445   455      1
   476   445   456      1
   477   446   447      1
   478   446   457      1
   479   447   458      1
   480   447   459      1
   481   447   463      1
   482   460   461      1
   483   460   465      1
   484   460   467      1
   485   460   468      1
   486   461   462      1
   487   461   469      1
   488   461   470      1
   489   462   463      1
   490   462   464      1
   491   462   471      1
   492   463   472      1
   493   463   473      1
   494   464   465      1
   495   464   474      1
   496   464   475      1
   497   465   466      1
   498   465   476      1
   499   466   477      1
   500   466   478      1
   501   466   479      1
   502   479   480      1
   503   479   481      1
   504   479   482      1
   505   480   483      1
   506   480   484      1
   507   480   488      1
   508   485   486      1
   509   485   490      1
   510   485   492      1
   511   485   493      1
   512   486   487      1
   513   486   494      1
   514   486   495      1
   515   487   488      1
   516   487   489      1
   517   487   496      1
   518   488   497      1
   519   488   498      1
   520   489   490      1
   521   489   499      1
   522   489   500      1
   523   490   491      1
   524   490   501      1
   525   491   502      1
   526   491   503      1
   527   491   507      1
   528   504   505      1
   529   504   509      1
   530   504   511      1
   531   504   512      1
   532   505   506      1
   533   505   513      1
   534   505   514      1
   535   506   507      1
   536   506   508      1
   537   506   515      1
   538   507   516      1
   539   507   517      1
   540   508   509      1
   541   508   518      1
   542   508   519      1
   543   509   510      1
   544   509   520      1
   545   510   521      1
   546   510   522      1
   547   510   526      1
   548   523   524      1
   549   523   528      1
   550   523   530      1
   551   523   531      1
   552   524   525      1
   553   524   532      1
   554   524   533      1
   555   525   526      1
   556   525   527      1
   557   525   534      1
   558   526   535      1
   559   526   536      1
   560   527   528      1
   561   527   537      1
   562   527   538      1
   563   528   529      1
   564   528   539      1
   565   529   540      1
   566   529   541      1
   567   529   545      1
   568   542   543      1
   569   542   547      1
   570   542   549      1
   571   542   550      1
   572   543   544      1
   573   543   551      1
   574   543   552      1
   575   544   545      1
   576   544   546      1
   577   544   553      1
   578   545   554      1
   579   545   555      1
   580   546   547      1
   581   546   556      1
   582   546   557      1
   583   547   548      1
   584   547   558      1
   585   548   559      1
   586   548   560      1
   587   548   564      1
   588   561   562      1
   589   561   566      1
   590   561   568      1
   591   561   569      1
   592   562   563      1
   593   562   570      1
   594   562   571      1
   595   563   564      1
   596   563   565      1
   597   563   572      1
   598   564   573      1
   599   564   574      1
   600   565   566      1
   601   565   575      1
   602   565   576      1
   603   566   567      1
   604   566   577      1
   605   567   578      1
   606   567   579      1
   607   567   583      1
   608   580   581      1
   609   580   585      1
   610   580   587      1
   611   580   588      1
   612   581   582      1
   613   581   589      1
   614   581   590      1
   615   582   583      1
   616   582   584      1
   617   582   591      1
   618   583   592      1
   619   583   593      1
   620   584   585      1
   621   584   594      1
   622   584   595      1
   623   585   586      1
   624   585   596      1
   625   586   597      1
   626   586   598      1
   627   586   602      1
   628   599   600      1
   629   599   604      1
   630   599   606      1
   631   599   607      1
   632   600   601      1
   633   600   608      1
   634   600   609      1
   635   601   602      1
   636   601   603      1
   637   601   610      1
   638   602   611      1
   639   602   612      1
   640   603   604      1
   641   603   613      1
   642   603   614      1
   643   604   605      1
   644   604   615      1
   645   605   616      1
   646   605   617      1
   647   605   621      1
   648   618   619      1
   649   618   623      1
   650   618   625      1
   651   618   626      1
   652   619   620      1
   653   619   627      1
   654   619   628      1
   655   620   621      1
   656   620   622      1
   657   620   629      1
   658   621   630      1
   659   621   631      1
   660   622   623      1
   661   622   632      1
   662   622   633      1
   663   623   624      1
   664   623   634      1
   665   624   635      1
   666   624   636      1
   667   624   640      1
   668   637   638      1
   669   637   642      1
   670   637   644      1
   671   637   645      1
   672   638   639      1
   673   638   646      1
   674   638   647      1
   675   639   640      1
   676   639   641      1
   677   639   648      1
   678   640   649      1
   679   640   650      1
   680   641   642      1
   681   641   651      1
   682   641   652      1
   683   642   643      1
   684   642   653      1
   685   643   654      1
   686   643   655      1
   687   643   659      1
   688   656   657      1
   689   656   661      1
   690   656   663      1
   691   656   664      1
   692   657   658      1
   693   657   665      1
   694   657   666      1
   695   658   659      1
   696   658   660      1
   697   658   667      1
   698   659   668      1
   699   659   669      1
   700   660   661      1
   701   660   670      1
   702   660   671      1
   703   661   662      1
   704   661   672      1
   705   662   673      1
   706   662   674      1
   707   662   675      1
   708   675   676      1
   709   675   677      1
   710   675   678      1
   711   676   679      1
   712   676   680      1
   713   676   684      1
   714   681   682      1
   715   681   686      1
   716   681   688      1
   717   681   689      1
   718   682   683      1
   719   682   690      1
   720   682   691      1
   721   683   684      1
   722   683   685      1
   723   683   692      1
   724   684   693      1
   725   684   694      1
   726   685   686      1
   727   685   695      1
   728   685   696      1
   729   686   687      1
   730   686   697      1
   731   687   698      1
   732   687   699      1
   733   687   703      1
   734   700   701      1
   735   700   705      1
   736   700   707      1
   737   700   708      1
   738   701   702      1
   739   701   709      1
   740   701   710      1
   741   702   703      1
   742   702   704      1
   743   702   711      1
   744   703   712      1
   745   703   713      1
   746   704   705      1
   747   704   714      1
   748   704   715      1
   749   705   706      1
   750   705   716      1
   751   706   717      1
   752   706   718      1
   753   706   722      1
   754   719   720      1
   755   719   724      1
   756   719   726      1
   757   719   727      1
   758   720   721      1
   759   720   728      1
   760   720   729      1
   761   721   722      1
   762   721   723      1
   763   721   730      1
   764   722   731      1
   765   722   732      1
   766   723   724      1
   767   723   733      1
   768   723   734      1
   769   724   725      1
   770   724   735      1
   771   725   736      1
   772   725   737      1
   773   725   741      1
   774   738   739      1
   775   738   743      1
   776   738   745      1
   777   738   746      1
   778   739   740      1
   779   739   747      1
   780   739   748      1
   781   740   741      1
   782   740   742      1
   783   740   749      1
   784   741   750      1
   785   741   751      1
   786   742   743      1
   787   742   752      1
   788   742   753      1
   789   743   744      1
   790   743   754      1
   791   744   755      1
   792   744   756      1
   793   744   760      1
   794   757   758      1
   795   757   762      1
   796   757   764      1
   797   757   765      1
   798   758   759      1
   799   758   766      1
   800   758   767      1
   801   759   760      1
   802   759   761      1
   803   759   768      1
   804   760   769      1
   805   760   770      1
   806   761   762      1
   807   761   771      1
   808   761   772      1
   809   762   763      1
   810   762   773      1
   811   763   774      1
   812   763   775      1
   813   763   779      1
   814   776   777      1
   815   776   781      1
   816   776   783      1
   817   776   784      1
   818   777   778      1
   819   777   785      1
   820   777   786      1
   821   778   779      1
   822   778   780      1
   823   778   787      1
   824   779   788      1
   825   779   789      1
   826   780   781      1
   827   780   790      1
   828   780   791      1
   829   781   782      1
   830   781   792      1
   831   782   793      1
   832   782   794      1
   833   782   795      1
   834   795   796      1
   835   795   797      1
   836   795   798      1
   837   796   799      1
   838   796   800      1
   839   796   804      1
   840   801   802      1
   841   801   806      1
   842   801   808      1
   843   801   809      1
   844   802   803      1
   845   802   810      1
   846   802   811      1
   847   803   804      1
   848   803   805      1
   849   803   812      1
   850   804   813      1
   851   804   814      1
   852   805   806      1
   853   805   815      1
   854   805   816      1
   855   806   807      1
   856   806   817      1
   857   807   818      1
   858   807   819      1
   859   807   823      1
   860   820   821      1
   861   820   825      1
   862   820   827      1
   863   820   828      1
   864   821   822      1
   865   821   829      1
   866   821   830      1
   867   822   823      1
   868   822   824      1
   869   822   831      1
   870   823   832      1
   871   823   833      1
   872   824   825      1
   873   824   834      1
   874   824   835      1
   875   825   826      1
   876   825   836      1
   877   826   837      1
   878   826   838      1
   879   826   839      1
   880   839   840      1
   881   839   841      1
   882   839   842      1
   883   840   843      1
   884   840   844      1
   885   840   848      1
   886   845   846      1
   887   845   850      1
   888   845   852      1
   889   845   853      1
   890   846   847      1
   891   846   854      1
   892   846   855      1
   893   847   848      1
   894   847   849      1
   895   847   856      1
   896   848   857      1
   897   848   858      1
   898   849   850      1
   899   849   859      1
   900   849   860      1
   901   850   851      1
   902   850   861      1
   903   851   862      1
   904   851   863      1
   905   851   867      1
   906   864   865      1
   907   864   869      1
   908   864   871      1
   909   864   872      1
   910   865   866      1
   911   865   873      1
   912   865   874      1
   913   866   867      1
   914   866   868      1
   915   866   875      1
   916   867   876      1
   917   867   877      1
   918   868   869      1
   919   868   878      1
   920   868   879      1
   921   869   870      1
   922   869   880      1
   923   870   881      1
   924   870   882      1
   925   870   883      1
   926   883   884      1
   927   883   885      1
   928   883   886      1
   929   884   887      1
   930   884   888      1
   931   884   892      1
   932   889   890      1
   933   889   894      1
   934   889   896      1
   935   889   897      1
   936   890   891      1
   937   890   898      1
   938   890   899      1
   939   891   892      1
   940   891   893      1
   941   891   900      1
   942   892   901      1
   943   892   902      1
   944   893   894      1
   945   893   903      1
   946   893   904      1
   947   894   895      1
   948   894   905      1
   949   895   906      1
   950   895   907      1
   951   895   908      1
   952   908   909      1
   953   908   910      1
   954   908   911      1
   955   909   912      1
   956   909   913      1
   957   909   917      1
   958   914   915      1
   959   914   919      1
   960   914   921      1
   961   914   922      1
   962   915   916      1
   963   915   923      1
   964   915   924      1
   965   916   917      1
   966   916   918      1
   967   916   925      1
   968   917   926      1
   969   917   927      1
   970   918   919      1
   971   918   928      1
   972   918   929      1
   973   919   920      1
   974   919   930      1
   975   920   931      1
   976   920   932      1
   977   920   936      1
   978   933   934      1
   979   933   938      1
   980   933   940      1
   981   933   941      1
   982   934   935      1
   983   934   942      1
   984   934   943      1
   985   935   936      1
   986   935   937      1
   987   935   944      1
   988   936   945      1
   989   936   946      1
   990   937   938      1
   991   937   947      1
   992   937   948      1
   993   938   939      1
   994   938   949      1
   995   939   950      1
   996   939   951      1
   997   939   955      1
   998   952   953      1
   999   952   957      1
  1000   952   959      1
  1001   952   960      1
  1002   953   954      1
  1003   953   961      1
  1004   953   962      1
  1005   954   955      1
  1006   954   956      1
  1007   954   963      1
  1008   955   964      1
  1009   955   965      1
  1010   956   957      1
  1011   956   966      1
  1012   956   967      1
  1013   957   958      1
  1014   957   968      1
  1015   958   969      1
  1016   958   970      1
  1017   958   971      1
  1018   971   972      1
  1019   971   973      1
  1020   971   974      1
  1021   972   975      1
  1022   972   976      1
  1023   972   980      1
  1024   977   978      1
  1025   977   982      1
  1026   977   984      1
  1027   977   985      1
  1028   978   979      1
  1029   978   986      1
  1030   978   987      1
  1031   979   980      1
  1032   979   981      1
  1033   979   988      1
  1034   980   989      1
  1035   980   990      1
  1036   981   982      1
  1037   981   991      1
  1038   981   992      1
  1039   982   983      1
  1040   982   993      1
  1041   983   994      1
  1042   983   995      1
  1043   983   999      1
  1044   996   997      1
  1045   996  1001      1
  1046   996  1003      1
  1047   996  1004      1
  1048   997   998      1
  1049   997  1005      1
  1050   997  1006      1
  1051   998   999      1
  1052   998  1000      1
  1053   998  1007      1
  1054   999  1008      1
  1055   999  1009      1
  1056  1000  1001      1
  1057  1000  1010      1
  1058  1000  1011      1
  1059  1001  1002      1
  1060  1001  1012      1
  1061  1002  1013      1
  1062  1002  1014      1
  1063  1002  1015      1
  1064  1015  1016      1
  1065  1015  1017      1
  1066  1015  1018      1
  1067  1016  1019      1
  1068  1016  1020      1
  1069  1016  1024      1
  1070  1021  1022      1
  1071  1021  1026      1
  1072  1021  1028      1
  1073  1021  1029      1
  1074  1022  1023      1
  1075  1022  1030      1
  1076  1022  1031      1
  1077  1023  1024      1
  1078  1023  1025      1
  1079  1023  1032      1
  1080  1024  1033      1
  1081  1024  1034      1
  1082  1025  1026      1
  1083  1025  1035      1
  1084  1025  1036      1
  1085  1026  1027      1
  1086  1026  1037      1
  1087  1027  1038      1
  1088  1027  1039      1
  1089  1027  1043      1
  1090  1040  1041      1
  1091  1040  1045      1
  1092  1040  1047      1
  1093  1040  1048      1
  1094  1041  1042      1
  1095  1041  1049      1
  1096  1041  1050      1
  1097  1042  1043      1
  1098  1042  1044      1
  1099  1042  1051      1
  1100  1043  1052      1
  1101  1043  1053      1
  1102  1044  1045      1
  1103  1044  1054      1
  1104  1044  1055      1
  1105  1045  1046      1
  1106  1045  1056      1
  1107  1046  1057      1
  1108  1046  1058      1
  1109  1046  1059      1
  1110  1059  1060      1
  1111  1059  1061      1
  1112  1059  1062      1
  1113  1060  1063      1
  1114  1060  1064      1
  1115  1060  1068      1
  1116  1065  1066      1
  1117  1065  1070      1
  1118  1065  1072      1
  1119  1065  1073      1
  1120  1066  1067      1
  1121  1066  1074      1
  1122  1066  1075      1
  1123  1067  1068      1
  1124  1067  1069      1
  1125  1067  1076      1
  1126  1068  1077      1
  1127  1068  1078      1
  1128  1069  1070      1
  1129  1069  1079      1
  1130  1069  1080      1
  1131  1070  1071      1
  1132  1070  1081      1
  1133  1071  1082      1
  1134  1071  1083      1
  1135  1071  1087      1
  1136  1084  1085      1
  1137  1084  1089      1
  1138  1084  1091      1
  1139  1084  1092      1
  1140  1085  1086      1
  1141  1085  1093      1
  1142  1085  1094      1
  1143  1086  1087      1
  1144  1086  1088      1
  1145  1086  1095      1
  1146  1087  1096      1
  1147  1087  1097      1
  1148  1088  1089      1
  1149  1088  1098      1
  1150  1088  1099      1
  1151  1089  1090      1
  1152  1089  1100      1
  1153  1090  1101      1
  1154  1090  1102      1
  1155  1090  1103      1
  1156  1103  1104      1
  1157  1103  1105      1
  1158  1103  1106      1
  1159  1104  1107      1
  1160  1104  1108      1
  1161  1104  1109      1
  1162  1109  1110      1
  1163  1109  1111      1
  1164  1109  1112      1
  1165  1110  1113      1
  1166  1110  1114      1
  1167  1110  1118      1
  1168  1115  1116      1
  1169  1115  1120      1
  1170  1115  1122      1
  1171  1115  1123      1
  1172  1116  1117      1
  1173  1116  1124      1
  1174  1116  1125      1
  1175  1117  1118      1
  1176  1117  1119      1
  1177  1117  1126      1
  1178  1118  1127      1
  1179  1118  1128      1
  1180  1119  1120      1
  1181  1119  1129      1
  1182  1119  1130      1
  1183  1120  1121      1
  1184  1120  1131      1
  1185  1121  1132      1
  1186  1121  1133      1
  1187  1121  1137      1
  1188  1134  1135      1
  1189  1134  1139      1
  1190  1134  1141      1
  1191  1134  1142      1
  1192  1135  1136      1
  1193  1135  1143      1
  1194  1135  1144      1
  1195  1136  1137      1
  1196  1136  1138      1
  1197  1136  1145      1
  1198  1137  1146      1
  1199  1137  1147      1
  1200  1138  1139      1
  1201  1138  1148      1
  1202  1138  1149      1
  1203  1139  1140      1
  1204  1139  1150      1
  1205  1140  1151      1
  1206  1140  1152      1
  1207  1140  1153      1
  1208  1153  1154      1
  1209  1153  1155      1
  1210  1153  1156      1
  1211  1154  1157      1
  1212  1154  1158      1
  1213  1154  1162      1
  1214  1159  1160      1
  1215  1159  1164      1
  1216  1159  1166      1
  1217  1159  1167      1
  1218  1160  1161      1
  1219  1160  1168      1
  1220  1160  1169      1
  1221  1161  1162      1
  1222  1161  1163      1
  1223  1161  1170      1
  1224  1162  1171      1
  1225  1162  1172      1
  1226  1163  1164      1
  1227  1163  1173      1
  1228  1163  1174      1
  1229  1164  1165      1
  1230  1164  1175      1
  1231  1165  1176      1
  1232  1165  1177      1
  1233  1165  1181      1
  1234  1178  1179      1
  1235  1178  1183      1
  1236  1178  1185      1
  1237  1178  1186      1
  1238  1179  1180      1
  1239  1179  1187      1
  1240  1179  1188      1
  1241  1180  1181      1
  1242  1180  1182      1
  1243  1180  1189      1
  1244  1181  1190      1
  1245  1181  1191      1
  1246  1182  1183      1
  1247  1182  1192      1
  1248  1182  1193      1
  1249  1183  1184      1
  1250  1183  1194      1
  1251  1184  1195      1
  1252  1184  1196      1
  1253  1184  1200      1
  1254  1197  1198      1
  1255  1197  1202      1
  1256  1197  1204      1
  1257  1197  1205      1
  1258  1198  1199      1
  1259  1198  1206      1
  1260  1198  1207      1
  1261  1199  1200      1
  1262  1199  1201      1
  1263  1199  1208      1
  1264  1200  1209      1
  1265  1200  1210      1
  1266  1201  1202      1
  1267  1201  1211      1
  1268  1201  1212      1
  1269  1202  1203      1
  1270  1202  1213      1
  1271  1203  1214      1
  1272  1203  1215      1
  1273  1203  1219      1
  1274  1216  1217      1
  1275  1216  1221      1
  1276  1216  1223      1
  1277  1216  1224      1
  1278  1217  1218      1
  1279  1217  1225      1
  1280  1217  1226      1
  1281  1218  1219      1
  1282  1218  1220      1
  1283  1218  1227      1
  1284  1219  1228      1
  1285  1219  1229      1
  1286  1220  1221      1
  1287  1220  1230      1
  1288  1220  1231      1
  1289  1221  1222      1
  1290  1221  1232      1
  1291  1222  1233      1
  1292  1222  1234      1
  1293  1222  1235      1
  1294  1235  1236      1
  1295  1235  1237      1
  1296  1235  1238      1
  1297  1236  1239      1
  1298  1236  1240      1
  1299  1236  1244      1
  1300  1241  1242      1
  1301  1241  1246      1
  1302  1241  1248      1
  1303  1241  1249      1
  1304  1242  1243      1
  1305  1242  1250      1
  1306  1242  1251      1
  1307  1243  1244      1
  1308  1243  1245      1
  1309  1243  1252      1
  1310  1244  1253      1
  1311  1244  1254      1
  1312  1245  1246      1
  1313  1245  1255      1
  1314  1245  1256      1
  1315  1246  1247      1
  1316  1246  1257      1
  1317  1247  1258      1
  1318  1247  1259      1
  1319  1247  1260      1
  1320  1260  1261      1
  1321  1260  1262      1
  1322  1260  1263      1
  1323  1261  1264      1
  1324  1261  1265      1
  1325  1261  1269      1
  1326  1266  1267      1
  1327  1266  1271      1
  1328  1266  1273      1
  1329  1266  1274      1
  1330  1267  1268      1
  1331  1267  1275      1
  1332  1267  1276      1
  1333  1268  1269      1
  1334  1268  1270      1
  1335  1268  1277      1
  1336  1269  1278      1
  1337  1269  1279      1
  1338  1270  1271      1
  1339  1270  1280      1
  1340  1270  1281      1
  1341  1271  1272      1
  1342  1271  1282      1
  1343  1272  1283      1
  1344  1272  1284      1
  1345  1272  1288      1
  1346  1285  1286      1
  1347  1285  1290      1
  1348  1285  1292      1
  1349  1285  1293      1
  1350  1286  1287      1
  1351  1286  1294      1
  1352  1286  1295      1
  1353  1287  1288      1
  1354  1287  1289      1
  1355  1287  1296      1
  1356  1288  1297      1
  1357  1288  1298      1
  1358  1289  1290      1
  1359  1289  1299      1
  1360  1289  1300      1
  1361  1290  1291      1
  1362  1290  1301      1
  1363  1291  1302      1
  1364  1291  1303      1
  1365  1291  1307      1
  1366  1304  1305      1
  1367  1304  1309      1
  1368  1304  1311      1
  1369  1304  1312      1
  1370  1305  1306      1
  1371  1305  1313      1
  1372  1305  1314      1
  1373  1306  1307      1
  1374  1306  1308      1
  1375  1306  1315      1
  1376  1307  1316      1
  1377  1307  1317      1
  1378  1308  1309      1
  1379  1308  1318      1
  1380  1308  1319      1
  1381  1309  1310      1
  1382  1309  1320      1
  1383  1310  1321      1
  1384  1310  1322      1
  1385  1310  1326      1
  1386  1323  1324      1
  1387  1323  1328      1
  1388  1323  1330      1
  1389  1323  1331      1
  1390  1324  1325      1
  1391  1324  1332      1
  1392  1324  1333      1
  1393  1325  1326      1
  1394  1325  1327      1
  1395  1325  1334      1
  1396  1326  1335      1
  1397  1326  1336      1
  1398  1327  1328      1
  1399  1327  1337      1
  1400  1327  1338      1
  1401  1328  1329      1
  1402  1328  1339      1
  1403  1329  1340      1
  1404  1329  1341      1
  1405  1329  1342      1
  1406  1342  1343      1
  1407  1342  1344      1
  1408  1342  1345      1
  1409  1343  1346      1
  1410  1343  1347      1
  1411  1343  1348      1
  1412  1348  1349      1
  1413  1348  1350      1
  1414  1348  1351      1
  1415  1349  1352      1
  1416  1349  1353      1
  1417  1349  1357      1
  1418  1354  1355      1
  1419  1354  1359      1
  1420  1354  1361      1
  1421  1354  1362      1
  1422  1355  1356      1
  1423  1355  1363      1
  1424  1355  1364      1
  1425  1356  1357      1
  1426  1356  1358      1
  1427  1356  1365      1
  1428  1357  1366      1
  1429  1357  1367      1
  1430  1358  1359      1
  1431  1358  1368      1
  1432  1358  1369      1
  1433  1359  1360      1
  1434  1359  1370      1
  1435  1360  1371      1
  1436  1360  1372      1
  1437  1360  1373      1
  1438  1373  1374      1
  1439  1373  1375      1
  1440  1373  1376      1
  1441  1374  1377      1
  1442  1374  1378      1
  1443  1374  1382      1
  1444  1379  1380      1
  1445  1379  1384      1
  1446  1379  1386      1
  1447  1379  1387      1
  1448  1380  1381      1
  1449  1380  1388      1
  1450  1380  1389      1
  1451  1381  1382      1
  1452  1381  1383      1
  1453  1381  1390      1
  1454  1382  1391      1
  1455  1382  1392      1
  1456  1383  1384      1
  1457  1383  1393      1
  1458  1383  1394      1
  1459  1384  1385      1
  1460  1384  1395      1
  1461  1385  1396      1
  1462  1385  1397      1
  1463  1385  1398      1
  1464  1398  1399      1
  1465  1398  1400      1
  1466  1398  1401      1
  1467  1399  1402      1
  1468  1399  1403      1
  1469  1399  1404      1
  1470  1404  1405      1
  1471  1404  1406      1
  1472  1404  1407      1
  1473  1405  1408      1
  1474  1405  1409      1
  1475  1405  1413      1
  1476  1410  1411      1
  1477  1410  1415      1
  1478  1410  1417      1
  1479  1410  1418      1
  1480  1411  1412      1
  1481  1411  1419      1
  1482  1411  1420      1
  1483  1412  1413      1
  1484  1412  1414      1
  1485  1412  1421      1
  1486  1413  1422      1
  1487  1413  1423      1
  1488  1414  1415      1
  1489  1414  1424      1
  1490  1414  1425      1
  1491  1415  1416      1
  1492  1415  1426      1
  1493  1416  1427      1
  1494  1416  1428      1
  1495  1416  1432      1
  1496  1429  1430      1
  1497  1429  1434      1
  1498  1429  1436      1
  1499  1429  1437      1
  1500  1430  1431      1
  1501  1430  1438      1
  1502  1430  1439      1
  1503  1431  1432      1
  1504  1431  1433      1
  1505  1431  1440      1
  1506  1432  1441      1
  1507  1432  1442      1
  1508  1433  1434      1
  1509  1433  1443      1
  1510  1433  1444      1
  1511  1434  1435      1
  1512  1434  1445      1
  1513  1435  1446      1
  1514  1435  1447      1
  1515  1435  1451      1
  1516  1448  1449      1
  1517  1448  1453      1
  1518  1448  1455      1
  1519  1448  1456      1
  1520  1449  1450      1
  1521  1449  1457      1
  1522  1449  1458      1
  1523  1450  1451      1
  1524  1450  1452      1
  1525  1450  1459      1
  1526  1451  1460      1
  1527  1451  1461      1
  1528  1452  1453      1
  1529  1452  1462      1
  1530  1452  1463      1
  1531  1453  1454      1
  1532  1453  1464      1
  1533  1454  1465      1
  1534  1454  1466      1
  1535  1454  1470      1
  1536  1467  1468      1
  1537  1467  1472      1
  1538  1467  1474      1
  1539  1467  1475      1
  1540  1468  1469      1
  1541  1468  1476      1
  1542  1468  1477      1
  1543  1469  1470      1
  1544  1469  1471      1
  1545  1469  1478      1
  1546  1470  1479      1
  1547  1470  1480      1
  1548  1471  1472      1
  1549  1471  1481      1
  1550  1471  1482      1
  1551  1472  1473      1
  1552  1472  1483      1
  1553  1473  1484      1
  1554  1473  1485      1
  1555  1473  1489      1
  1556  1486  1487      1
  1557  1486  1491      1
  1558  1486  1493      1
  1559  1486  1494      1
  1560  1487  1488      1
  1561  1487  1495      1
  1562  1487  1496      1
  1563  1488  1489      1
  1564  1488  1490      1
  1565  1488  1497      1
  1566  1489  1498      1
  1567  1489  1499      1
  1568  1490  1491      1
  1569  1490  1500      1
  1570  1490  1501      1
  1571  1491  1492      1
  1572  1491  1502      1
  1573  1492  1503      1
  1574  1492  1504      1
  1575  1492  1508      1
  1576  1505  1506      1
  1577  1505  1510      1
  1578  1505  1512      1
  1579  1505  1513      1
  1580  1506  1507      1
  1581  1506  1514      1
  1582  1506  1515      1
  1583  1507  1508      1
  1584  1507  1509      1
  1585  1507  1516      1
  1586  1508  1517      1
  1587  1508  1518      1
  1588  1509  1510      1
  1589  1509  1519      1
  1590  1509  1520      1
  1591  1510  1511      1
  1592  1510  1521      1
  1593  1511  1522      1
  1594  1511  1523      1
  1595  1511  1527      1
  1596  1524  1525      1
  1597  1524  1529      1
  1598  1524  1531      1
  1599  1524  1532      1
  1600  1525  1526      1
  1601  1525  1533      1
  1602  1525  1534      1
  1603  1526  1527      1
  1604  1526  1528      1
  1605  1526  1535      1
  1606  1527  1536      1
  1607  1527  1537      1
  1608  1528  1529      1
  1609  1528  1538      1
  1610  1528  1539      1
  1611  1529  1530      1
  1612  1529  1540      1
  1613  1530  1541      1
  1614  1530  1542      1
  1615  1530  1543      H
