@<TRIPOS>MOLECULE
generated by VMD
257  271    1    0    0
SMALL
NO_CHARGES
****
Energy = 0

@<TRIPOS>ATOM
      1 C         177.6010  203.8804    4.9021 C.3     1  UNL1        0.0000
      2 C         178.3136  202.5464    5.1463 C.3     1  UNL1        0.0000
      3 C         178.3136  201.6896    3.8962 C.3     1  UNL1        0.0000
      4 C         176.8671  201.4847    3.4611 C.3     1  UNL1        0.0000
      5 C         176.0431  202.7699    3.4982 C.3     1  UNL1        0.0000
      6 O         176.8635  203.8925    3.7059 O.3     1  UNL1        0.0000
      7 C         175.2405  204.1155    1.6152 C.3     1  UNL1        0.0000
      8 C         176.3583  204.1712    0.5894 C.3     1  UNL1        0.0000
      9 C         175.8936  203.5620   -0.7186 C.3     1  UNL1        0.0000
     10 C         174.8172  204.4832   -1.3015 C.3     1  UNL1        0.0000
     11 C         173.8556  204.9407   -0.1609 C.3     1  UNL1        0.0000
     12 O         173.9498  204.1227    0.9890 O.3     1  UNL1        0.0000
     13 C         180.5957  203.2843    4.9696 C.3     1  UNL1        0.0000
     14 O         181.4324  202.2219    4.5518 O.3     1  UNL1        0.0000
     15 C         182.8150  202.4852    4.6009 C.3     1  UNL1        0.0000
     16 C         183.1030  203.9111    4.1164 C.3     1  UNL1        0.0000
     17 C         182.5037  204.8839    5.1346 C.3     1  UNL1        0.0000
     18 C         181.3220  204.2664    5.8580 C.3     1  UNL1        0.0000
     19 C         184.8913  205.8617    2.3217 C.3     1  UNL1        0.0000
     20 C         185.0427  204.4330    2.7835 C.3     1  UNL1        0.0000
     21 O         184.5727  203.5199    1.8248 O.3     1  UNL1        0.0000
     22 C         185.2870  203.5424    0.6179 C.3     1  UNL1        0.0000
     23 C         185.3440  204.9417   -0.0043 C.3     1  UNL1        0.0000
     24 C         185.6865  206.0090    1.0350 C.3     1  UNL1        0.0000
     25 C         182.0050  206.6876   -2.4550 C.3     1  UNL1        0.0000
     26 C         183.5153  206.7537   -2.4014 C.3     1  UNL1        0.0000
     27 C         184.0908  205.4068   -2.0064 C.3     1  UNL1        0.0000
     28 O         183.2509  204.3422   -2.4179 O.3     1  UNL1        0.0000
     29 C         182.5762  204.5540   -3.6309 C.3     1  UNL1        0.0000
     30 C         181.5558  205.7110   -3.5407 C.3     1  UNL1        0.0000
     31 C         176.6786  205.6235   -2.4240 C.3     1  UNL1        0.0000
     32 C         177.1621  207.0315   -2.7050 C.3     1  UNL1        0.0000
     33 C         178.6511  206.9665   -3.0206 C.3     1  UNL1        0.0000
     34 C         179.1442  205.7764   -3.8379 C.3     1  UNL1        0.0000
     35 O         178.2851  204.6411   -3.9317 O.3     1  UNL1        0.0000
     36 C         176.9141  204.8131   -3.6899 C.3     1  UNL1        0.0000
     37 O         175.2974  202.8699    2.2892 O.3     1  UNL1        0.0000
     38 O         177.5101  203.4708    0.9942 O.3     1  UNL1        0.0000
     39 O         175.4029  202.2625   -0.4750 O.3     1  UNL1        0.0000
     40 O         175.3476  205.6403   -1.9497 O.3     1  UNL1        0.0000
     41 C         176.1746  205.2211   -4.9590 C.3     1  UNL1        0.0000
     42 O         176.9583  207.8122   -1.5492 O.3     1  UNL1        0.0000
     43 O         179.0246  208.1560   -3.6840 O.3     1  UNL1        0.0000
     44 O         180.2883  205.1699   -3.2377 O.3     1  UNL1        0.0000
     45 C         183.5339  204.6334   -4.8180 C.3     1  UNL1        0.0000
     46 O         181.5519  207.9949   -2.7032 O.3     1  UNL1        0.0000
     47 O         183.8811  207.7778   -1.5062 O.3     1  UNL1        0.0000
     48 O         184.1064  205.2786   -0.5894 O.3     1  UNL1        0.0000
     49 C         186.6551  202.8933    0.7986 C.3     1  UNL1        0.0000
     50 O         186.5097  201.7345    1.6001 O.3     1  UNL1        0.0000
     51 O         184.4535  203.5587   -4.7730 O.3     1  UNL1        0.0000
     52 O         185.4224  207.2795    0.4922 O.3     1  UNL1        0.0000
     53 O         183.5506  206.1914    2.0577 O.3     1  UNL1        0.0000
     54 O         184.4800  204.1614    4.0488 O.3     1  UNL1        0.0000
     55 C         183.4905  201.3633    3.8163 C.3     1  UNL1        0.0000
     56 O         184.8921  201.3494    4.0099 O.3     1  UNL1        0.0000
     57 O         182.0850  206.0530    4.4717 O.3     1  UNL1        0.0000
     58 O         180.4338  205.2849    6.2549 O.3     1  UNL1        0.0000
     59 O         179.5704  202.7055    5.7542 O.3     1  UNL1        0.0000
     60 C         172.3719  205.2915   -0.4973 C.3     1  UNL1        0.0000
     61 O         171.4591  204.2231   -0.7536 O.3     1  UNL1        0.0000
     62 C         176.7688  204.3322    6.0956 C.3     1  UNL1        0.0000
     63 O         177.6264  204.5425    7.2028 O.3     1  UNL1        0.0000
     64 O         176.8494  206.2503   -5.6502 O.3     1  UNL1        0.0000
     65 O         178.8818  200.4264    4.1453 O.3     1  UNL1        0.0000
     66 O         176.9007  200.9245    2.1665 O.3     1  UNL1        0.0000
     67 C         162.5840  203.9872    4.1227 C.3     1  UNL1        0.0000
     68 C         162.8148  202.8852    3.0663 C.3     1  UNL1        0.0000
     69 C         161.5121  202.1369    2.8384 C.3     1  UNL1        0.0000
     70 C         160.9088  201.8528    4.2104 C.3     1  UNL1        0.0000
     71 C         160.5143  203.1210    4.9532 C.3     1  UNL1        0.0000
     72 O         161.2169  204.2270    4.4050 O.3     1  UNL1        0.0000
     73 C         158.4780  204.4163    5.2839 C.3     1  UNL1        0.0000
     74 C         157.2913  204.1231    6.1892 C.3     1  UNL1        0.0000
     75 C         155.9983  203.9325    5.3970 C.3     1  UNL1        0.0000
     76 C         155.6601  205.2520    4.6576 C.3     1  UNL1        0.0000
     77 C         156.9935  205.9365    4.2591 C.3     1  UNL1        0.0000
     78 O         158.0013  204.9727    4.0757 O.3     1  UNL1        0.0000
     79 C         163.1168  203.6939    0.7242 C.3     1  UNL1        0.0000
     80 O         164.2081  203.4682   -0.1703 O.3     1  UNL1        0.0000
     81 C         164.2401  204.1930   -1.3930 C.3     1  UNL1        0.0000
     82 C         162.8597  204.8546   -1.7541 C.3     1  UNL1        0.0000
     83 C         162.3836  205.7023   -0.5701 C.3     1  UNL1        0.0000
     84 C         162.8414  205.1711    0.7853 C.3     1  UNL1        0.0000
     85 C         160.8371  206.9925   -3.3560 C.3     1  UNL1        0.0000
     86 C         161.7796  205.8787   -3.7984 C.3     1  UNL1        0.0000
     87 O         161.1321  204.7358   -4.3348 O.3     1  UNL1        0.0000
     88 C         160.0151  205.0125   -5.1942 C.3     1  UNL1        0.0000
     89 C         158.8828  205.6400   -4.3446 C.3     1  UNL1        0.0000
     90 C         159.4012  206.9891   -3.9175 C.3     1  UNL1        0.0000
     91 C         155.0411  206.3496   -2.5602 C.3     1  UNL1        0.0000
     92 C         155.4874  206.4463   -4.0234 C.3     1  UNL1        0.0000
     93 C         156.4091  205.3240   -4.4805 C.3     1  UNL1        0.0000
     94 O         156.5281  204.3558   -3.4665 O.3     1  UNL1        0.0000
     95 C         155.2975  203.8792   -2.9298 C.3     1  UNL1        0.0000
     96 C         154.4091  204.9804   -2.3019 C.3     1  UNL1        0.0000
     97 C         153.8456  204.4064    3.1186 C.3     1  UNL1        0.0000
     98 C         154.3575  203.3265    2.1785 C.3     1  UNL1        0.0000
     99 C         155.0202  203.9157    0.9452 C.3     1  UNL1        0.0000
    100 C         154.2700  205.0343    0.2265 C.3     1  UNL1        0.0000
    101 O         153.1200  205.5312    0.9283 O.3     1  UNL1        0.0000
    102 C         152.7660  205.0766    2.2290 C.3     1  UNL1        0.0000
    103 O         159.1138  203.2403    4.7887 O.3     1  UNL1        0.0000
    104 O         157.5457  203.0297    7.0335 O.3     1  UNL1        0.0000
    105 O         154.9704  203.5647    6.2883 O.3     1  UNL1        0.0000
    106 O         154.8419  205.3273    3.4880 O.3     1  UNL1        0.0000
    107 C         151.4579  204.2607    2.1644 C.3     1  UNL1        0.0000
    108 O         155.2420  202.4879    2.8576 O.3     1  UNL1        0.0000
    109 O         156.2833  204.3976    1.3491 O.3     1  UNL1        0.0000
    110 O         153.7862  204.6271   -1.0587 O.3     1  UNL1        0.0000
    111 C         154.6316  202.8732   -3.8911 C.3     1  UNL1        0.0000
    112 O         154.1254  207.4016   -2.3731 O.3     1  UNL1        0.0000
    113 O         156.0408  207.7153   -4.2799 O.3     1  UNL1        0.0000
    114 O         157.6629  205.7506   -5.0522 O.3     1  UNL1        0.0000
    115 C         160.4607  205.6163   -6.5430 C.3     1  UNL1        0.0000
    116 O         159.4872  206.3711   -7.2435 O.3     1  UNL1        0.0000
    117 O         153.3038  203.2050   -4.2573 O.3     1  UNL1        0.0000
    118 O         159.3687  207.8637   -5.0244 O.3     1  UNL1        0.0000
    119 O         161.4362  208.2302   -3.7040 O.3     1  UNL1        0.0000
    120 O         162.9312  205.5713   -2.9785 O.3     1  UNL1        0.0000
    121 C         165.5690  205.0202   -1.4681 C.3     1  UNL1        0.0000
    122 O         166.7696  204.2407   -1.6268 O.3     1  UNL1        0.0000
    123 O         160.9750  205.6736   -0.5166 O.3     1  UNL1        0.0000
    124 O         164.0232  205.8142    1.2064 O.3     1  UNL1        0.0000
    125 O         163.6446  203.2331    1.9641 O.3     1  UNL1        0.0000
    126 C         157.4593  207.0857    5.1500 C.3     1  UNL1        0.0000
    127 O         158.7438  207.4918    4.7167 O.3     1  UNL1        0.0000
    128 C         163.3570  203.7392    5.4254 C.3     1  UNL1        0.0000
    129 O         164.7459  203.6518    5.1638 O.3     1  UNL1        0.0000
    130 O         151.4280  203.3647    1.0663 O.3     1  UNL1        0.0000
    131 O         161.7135  200.8806    2.2350 O.3     1  UNL1        0.0000
    132 O         159.7831  201.0236    4.0144 O.3     1  UNL1        0.0000
    133 C         168.6632  204.5685    1.2319 C.ar    1  UNL1        0.0000
    134 N         169.8655  204.5065    0.8267 N.ar    1  UNL1        0.0000
    135 C         170.1026  204.4156   -0.4129 C.ar    1  UNL1        0.0000
    136 N         169.1056  204.3767   -1.2220 N.ar    1  UNL1        0.0000
    137 C         167.8908  204.4346   -0.8096 C.ar    1  UNL1        0.0000
    138 N         167.6835  204.5386    0.4383 N.ar    1  UNL1        0.0000
    139 Cl        168.3528  204.6832    2.9301 Cl      1  UNL1        0.0000
    140 H         178.3519  204.6925    4.7484 H       1  UNL1        0.0000
    141 H         177.7104  201.9763    5.8974 H       1  UNL1        0.0000
    142 H         178.9074  202.1645    3.0840 H       1  UNL1        0.0000
    143 H         176.3691  200.7270    4.1122 H       1  UNL1        0.0000
    144 H         175.3012  202.7377    4.3303 H       1  UNL1        0.0000
    145 H         175.2606  204.9616    2.3349 H       1  UNL1        0.0000
    146 H         176.6796  205.2306    0.4587 H       1  UNL1        0.0000
    147 H         176.7470  203.3555   -1.3976 H       1  UNL1        0.0000
    148 H         174.2408  203.9081   -2.0629 H       1  UNL1        0.0000
    149 H         174.2702  205.9272    0.1820 H       1  UNL1        0.0000
    150 H         180.2007  203.8022    4.0701 H       1  UNL1        0.0000
    151 H         183.1525  202.3806    5.6613 H       1  UNL1        0.0000
    152 H         182.6182  204.0455    3.1249 H       1  UNL1        0.0000
    153 H         183.2504  205.2049    5.8993 H       1  UNL1        0.0000
    154 H         181.6512  203.7597    6.7960 H       1  UNL1        0.0000
    155 H         185.2524  206.5759    3.0970 H       1  UNL1        0.0000
    156 H         186.1317  204.2516    2.9471 H       1  UNL1        0.0000
    157 H         184.7199  202.8731   -0.0781 H       1  UNL1        0.0000
    158 H         186.1549  204.9504   -0.7682 H       1  UNL1        0.0000
    159 H         186.7782  205.9758    1.2654 H       1  UNL1        0.0000
    160 H         181.6219  206.3887   -1.4518 H       1  UNL1        0.0000
    161 H         183.9125  207.0838   -3.3883 H       1  UNL1        0.0000
    162 H         185.0944  205.2720   -2.4628 H       1  UNL1        0.0000
    163 H         182.0086  203.6034   -3.8055 H       1  UNL1        0.0000
    164 H         181.5283  206.2133   -4.5341 H       1  UNL1        0.0000
    165 H         177.3626  205.2897   -1.6130 H       1  UNL1        0.0000
    166 H         176.5680  207.5119   -3.5115 H       1  UNL1        0.0000
    167 H         179.1847  206.9737   -2.0417 H       1  UNL1        0.0000
    168 H         179.3815  206.0654   -4.8867 H       1  UNL1        0.0000
    169 H         176.5296  203.7817   -3.4855 H       1  UNL1        0.0000
    170 H         177.2611  202.5594    1.1607 H       1  UNL1        0.0000
    171 H         175.4152  201.7476   -1.2844 H       1  UNL1        0.0000
    172 H         176.1062  204.3698   -5.6748 H       1  UNL1        0.0000
    173 H         175.1445  205.5732   -4.7300 H       1  UNL1        0.0000
    174 H         176.0136  207.8499   -1.3777 H       1  UNL1        0.0000
    175 H         179.7854  208.5521   -3.2577 H       1  UNL1        0.0000
    176 H         184.1285  205.5690   -4.8577 H       1  UNL1        0.0000
    177 H         182.9765  204.5484   -5.7783 H       1  UNL1        0.0000
    178 H         182.0920  208.5939   -2.1791 H       1  UNL1        0.0000
    179 H         184.8253  207.7652   -1.3384 H       1  UNL1        0.0000
    180 H         187.3891  203.5603    1.2990 H       1  UNL1        0.0000
    181 H         187.0909  202.5809   -0.1771 H       1  UNL1        0.0000
    182 H         185.9916  201.9683    2.3761 H       1  UNL1        0.0000
    183 H         183.9869  202.7359   -4.6108 H       1  UNL1        0.0000
    184 H         184.4617  207.3676    0.4656 H       1  UNL1        0.0000
    185 H         183.0526  206.2927    2.8692 H       1  UNL1        0.0000
    186 H         183.1255  200.3705    4.1665 H       1  UNL1        0.0000
    187 H         183.2882  201.4382    2.7263 H       1  UNL1        0.0000
    188 H         185.2440  200.5155    3.6864 H       1  UNL1        0.0000
    189 H         181.4352  206.4973    5.0230 H       1  UNL1        0.0000
    190 H         179.6826  204.9025    6.7194 H       1  UNL1        0.0000
    191 H         172.3541  205.9655   -1.3833 H       1  UNL1        0.0000
    192 H         171.9754  205.8800    0.3651 H       1  UNL1        0.0000
    193 H         176.2490  205.2955    5.8945 H       1  UNL1        0.0000
    194 H         176.0123  203.5762    6.3995 H       1  UNL1        0.0000
    195 H         177.1093  204.7987    7.9695 H       1  UNL1        0.0000
    196 H         177.6159  205.8821   -6.0964 H       1  UNL1        0.0000
    197 H         178.8861  199.9318    3.3214 H       1  UNL1        0.0000
    198 H         176.0484  201.0301    1.7344 H       1  UNL1        0.0000
    199 H         162.9731  204.9502    3.7128 H       1  UNL1        0.0000
    200 H         163.4571  202.1217    3.5836 H       1  UNL1        0.0000
    201 H         160.8071  202.7176    2.1990 H       1  UNL1        0.0000
    202 H         161.6234  201.2587    4.8364 H       1  UNL1        0.0000
    203 H         160.7253  203.0399    6.0410 H       1  UNL1        0.0000
    204 H         159.2275  205.0800    5.7626 H       1  UNL1        0.0000
    205 H         157.1229  204.9724    6.9041 H       1  UNL1        0.0000
    206 H         156.2005  203.0685    4.7408 H       1  UNL1        0.0000
    207 H         155.1539  205.9042    5.4114 H       1  UNL1        0.0000
    208 H         156.8624  206.4156    3.2508 H       1  UNL1        0.0000
    209 H         162.2493  203.0804    0.4041 H       1  UNL1        0.0000
    210 H         164.3837  203.4175   -2.1910 H       1  UNL1        0.0000
    211 H         162.1359  204.0184   -1.9122 H       1  UNL1        0.0000
    212 H         162.6910  206.7678   -0.6899 H       1  UNL1        0.0000
    213 H         162.0756  205.3899    1.5666 H       1  UNL1        0.0000
    214 H         160.7599  207.0473   -2.2521 H       1  UNL1        0.0000
    215 H         162.3081  206.3137   -4.6857 H       1  UNL1        0.0000
    216 H         159.6114  204.0072   -5.4488 H       1  UNL1        0.0000
    217 H         158.7350  205.0066   -3.4422 H       1  UNL1        0.0000
    218 H         158.7048  207.4434   -3.1591 H       1  UNL1        0.0000
    219 H         155.9250  206.5265   -1.8918 H       1  UNL1        0.0000
    220 H         154.5638  206.4086   -4.6685 H       1  UNL1        0.0000
    221 H         155.8933  204.8153   -5.3351 H       1  UNL1        0.0000
    222 H         155.6469  203.2691   -2.0517 H       1  UNL1        0.0000
    223 H         153.5228  205.0572   -2.9887 H       1  UNL1        0.0000
    224 H         153.3936  204.0111    4.0507 H       1  UNL1        0.0000
    225 H         153.5206  202.6495    1.8981 H       1  UNL1        0.0000
    226 H         155.2317  203.0705    0.2483 H       1  UNL1        0.0000
    227 H         154.9338  205.9189    0.0774 H       1  UNL1        0.0000
    228 H         152.4698  206.0011    2.7975 H       1  UNL1        0.0000
    229 H         156.8637  203.0241    7.7210 H       1  UNL1        0.0000
    230 H         154.8598  202.6076    6.2849 H       1  UNL1        0.0000
    231 H         150.5616  204.9140    2.0618 H       1  UNL1        0.0000
    232 H         151.3105  203.6460    3.0830 H       1  UNL1        0.0000
    233 H         154.8399  202.2943    3.7299 H       1  UNL1        0.0000
    234 H         156.6387  203.8179    2.0328 H       1  UNL1        0.0000
    235 H         154.5840  201.8539   -3.4423 H       1  UNL1        0.0000
    236 H         155.1939  202.7725   -4.8436 H       1  UNL1        0.0000
    237 H         154.5578  208.2171   -2.6534 H       1  UNL1        0.0000
    238 H         156.7289  207.6739   -4.9456 H       1  UNL1        0.0000
    239 H         160.7767  204.7974   -7.2382 H       1  UNL1        0.0000
    240 H         161.3403  206.2902   -6.4576 H       1  UNL1        0.0000
    241 H         159.7512  206.4275   -8.1757 H       1  UNL1        0.0000
    242 H         153.2631  204.0640   -4.6839 H       1  UNL1        0.0000
    243 H         158.8782  207.4578   -5.7394 H       1  UNL1        0.0000
    244 H         160.7426  208.8600   -3.9129 H       1  UNL1        0.0000
    245 H         165.6793  205.7071   -0.6067 H       1  UNL1        0.0000
    246 H         165.5064  205.6762   -2.3678 H       1  UNL1        0.0000
    247 H         160.6595  206.3303    0.1095 H       1  UNL1        0.0000
    248 H         164.6217  205.1558    1.5764 H       1  UNL1        0.0000
    249 H         156.7736  207.9534    5.0773 H       1  UNL1        0.0000
    250 H         157.5556  206.8462    6.2319 H       1  UNL1        0.0000
    251 H         159.1471  208.0870    5.3567 H       1  UNL1        0.0000
    252 H         163.0772  202.7892    5.9248 H       1  UNL1        0.0000
    253 H         163.2174  204.5673    6.1554 H       1  UNL1        0.0000
    254 H         165.2302  203.4661    5.9750 H       1  UNL1        0.0000
    255 H         150.9962  202.5438    1.3226 H       1  UNL1        0.0000
    256 H         160.8686  200.4213    2.2777 H       1  UNL1        0.0000
    257 H         159.0915  201.2768    4.6314 H       1  UNL1        0.0000
@<TRIPOS>BOND
     1     1     2     1
     2     1     6     1
     3     1    62     1
     4     1   140     1
     5     2     3     1
     6     2    59     1
     7     2   141     1
     8     3     4     1
     9     3    65     1
    10     3   142     1
    11     4     5     1
    12     4    66     1
    13     4   143     1
    14     5     6     1
    15     5    37     1
    16     5   144     1
    17     7     8     1
    18     7    12     1
    19     7    37     1
    20     7   145     1
    21     8     9     1
    22     8    38     1
    23     8   146     1
    24     9    10     1
    25     9    39     1
    26     9   147     1
    27    10    11     1
    28    10    40     1
    29    10   148     1
    30    11    12     1
    31    11    60     1
    32    11   149     1
    33    13    14     1
    34    13    18     1
    35    13    59     1
    36    13   150     1
    37    14    15     1
    38    15    16     1
    39    15    55     1
    40    15   151     1
    41    16    17     1
    42    16    54     1
    43    16   152     1
    44    17    18     1
    45    17    57     1
    46    17   153     1
    47    18    58     1
    48    18   154     1
    49    19    20     1
    50    19    24     1
    51    19    53     1
    52    19   155     1
    53    20    21     1
    54    20    54     1
    55    20   156     1
    56    21    22     1
    57    22    23     1
    58    22    49     1
    59    22   157     1
    60    23    24     1
    61    23    48     1
    62    23   158     1
    63    24    52     1
    64    24   159     1
    65    25    26     1
    66    25    30     1
    67    25    46     1
    68    25   160     1
    69    26    27     1
    70    26    47     1
    71    26   161     1
    72    27    28     1
    73    27    48     1
    74    27   162     1
    75    28    29     1
    76    29    30     1
    77    29    45     1
    78    29   163     1
    79    30    44     1
    80    30   164     1
    81    31    32     1
    82    31    36     1
    83    31    40     1
    84    31   165     1
    85    32    33     1
    86    32    42     1
    87    32   166     1
    88    33    34     1
    89    33    43     1
    90    33   167     1
    91    34    35     1
    92    34    44     1
    93    34   168     1
    94    35    36     1
    95    36    41     1
    96    36   169     1
    97    38   170     1
    98    39   171     1
    99    41    64     1
   100    41   172     1
   101    41   173     1
   102    42   174     1
   103    43   175     1
   104    45    51     1
   105    45   176     1
   106    45   177     1
   107    46   178     1
   108    47   179     1
   109    49    50     1
   110    49   180     1
   111    49   181     1
   112    50   182     1
   113    51   183     1
   114    52   184     1
   115    53   185     1
   116    55    56     1
   117    55   186     1
   118    55   187     1
   119    56   188     1
   120    57   189     1
   121    58   190     1
   122    60    61     1
   123    60   191     1
   124    60   192     1
   125    61   135     1
   126    62    63     1
   127    62   193     1
   128    62   194     1
   129    63   195     1
   130    64   196     1
   131    65   197     1
   132    66   198     1
   133    67    68     1
   134    67    72     1
   135    67   128     1
   136    67   199     1
   137    68    69     1
   138    68   125     1
   139    68   200     1
   140    69    70     1
   141    69   131     1
   142    69   201     1
   143    70    71     1
   144    70   132     1
   145    70   202     1
   146    71    72     1
   147    71   103     1
   148    71   203     1
   149    73    74     1
   150    73    78     1
   151    73   103     1
   152    73   204     1
   153    74    75     1
   154    74   104     1
   155    74   205     1
   156    75    76     1
   157    75   105     1
   158    75   206     1
   159    76    77     1
   160    76   106     1
   161    76   207     1
   162    77    78     1
   163    77   126     1
   164    77   208     1
   165    79    80     1
   166    79    84     1
   167    79   125     1
   168    79   209     1
   169    80    81     1
   170    81    82     1
   171    81   121     1
   172    81   210     1
   173    82    83     1
   174    82   120     1
   175    82   211     1
   176    83    84     1
   177    83   123     1
   178    83   212     1
   179    84   124     1
   180    84   213     1
   181    85    86     1
   182    85    90     1
   183    85   119     1
   184    85   214     1
   185    86    87     1
   186    86   120     1
   187    86   215     1
   188    87    88     1
   189    88    89     1
   190    88   115     1
   191    88   216     1
   192    89    90     1
   193    89   114     1
   194    89   217     1
   195    90   118     1
   196    90   218     1
   197    91    92     1
   198    91    96     1
   199    91   112     1
   200    91   219     1
   201    92    93     1
   202    92   113     1
   203    92   220     1
   204    93    94     1
   205    93   114     1
   206    93   221     1
   207    94    95     1
   208    95    96     1
   209    95   111     1
   210    95   222     1
   211    96   110     1
   212    96   223     1
   213    97    98     1
   214    97   102     1
   215    97   106     1
   216    97   224     1
   217    98    99     1
   218    98   108     1
   219    98   225     1
   220    99   100     1
   221    99   109     1
   222    99   226     1
   223   100   101     1
   224   100   110     1
   225   100   227     1
   226   101   102     1
   227   102   107     1
   228   102   228     1
   229   104   229     1
   230   105   230     1
   231   107   130     1
   232   107   231     1
   233   107   232     1
   234   108   233     1
   235   109   234     1
   236   111   117     1
   237   111   235     1
   238   111   236     1
   239   112   237     1
   240   113   238     1
   241   115   116     1
   242   115   239     1
   243   115   240     1
   244   116   241     1
   245   117   242     1
   246   118   243     1
   247   119   244     1
   248   121   122     1
   249   121   245     1
   250   121   246     1
   251   122   137     1
   252   123   247     1
   253   124   248     1
   254   126   127     1
   255   126   249     1
   256   126   250     1
   257   127   251     1
   258   128   129     1
   259   128   252     1
   260   128   253     1
   261   129   254     1
   262   130   255     1
   263   131   256     1
   264   132   257     1
   265   133   134     1
   266   133   138     2
   267   133   139     1
   268   134   135     2
   269   135   136     1
   270   136   137     2
   271   137   138     1
