@<TRIPOS>MOLECULE
generated by VMD
257  271    1    0    0
SMALL
NO_CHARGES
****
Energy = 0

@<TRIPOS>ATOM
      1 C         118.3879  146.9040    4.9021 C.3     1  UNL1        0.0000
      2 C         119.2215  145.6420    5.1463 C.3     1  UNL1        0.0000
      3 C         119.9749  145.2339    3.8962 C.3     1  UNL1        0.0000
      4 C         120.8440  146.4082    3.4611 C.3     1  UNL1        0.0000
      5 C         120.1064  147.7449    3.4982 C.3     1  UNL1        0.0000
      6 O         118.7286  147.5582    3.7059 O.3     1  UNL1        0.0000
      7 C         119.3055  149.0915    1.6152 C.3     1  UNL1        0.0000
      8 C         118.7241  148.1352    0.5894 C.3     1  UNL1        0.0000
      9 C         119.4811  148.2536   -0.7186 C.3     1  UNL1        0.0000
     10 C         119.1838  149.6388   -1.3015 C.3     1  UNL1        0.0000
     11 C         119.2395  150.7023   -0.1609 C.3     1  UNL1        0.0000
     12 O         119.9139  150.2298    0.9890 O.3     1  UNL1        0.0000
     13 C         117.4858  143.9868    4.9696 C.3     1  UNL1        0.0000
     14 O         118.0214  142.7451    4.5518 O.3     1  UNL1        0.0000
     15 C         117.1314  141.6548    4.6009 C.3     1  UNL1        0.0000
     16 C         115.7404  142.0807    4.1164 C.3     1  UNL1        0.0000
     17 C         115.1705  143.0710    5.1346 C.3     1  UNL1        0.0000
     18 C         116.2763  143.8160    5.8580 C.3     1  UNL1        0.0000
     19 C         113.1736  141.4373    2.3217 C.3     1  UNL1        0.0000
     20 C         114.3577  140.6237    2.7835 C.3     1  UNL1        0.0000
     21 O         115.3844  140.6021    1.8248 O.3     1  UNL1        0.0000
     22 C         115.0244  139.9847    0.6179 C.3     1  UNL1        0.0000
     23 C         113.7669  140.6011   -0.0043 C.3     1  UNL1        0.0000
     24 C         112.6653  140.8083    1.0350 C.3     1  UNL1        0.0000
     25 C         113.8220  144.3686   -2.4550 C.3     1  UNL1        0.0000
     26 C         113.0446  143.0721   -2.4014 C.3     1  UNL1        0.0000
     27 C         113.9548  141.9245   -2.0064 C.3     1  UNL1        0.0000
     28 O         115.2909  142.1560   -2.4179 O.3     1  UNL1        0.0000
     29 C         115.4260  142.8501   -3.6309 C.3     1  UNL1        0.0000
     30 C         114.8947  144.2984   -3.5407 C.3     1  UNL1        0.0000
     31 C         117.2946  148.5452   -2.4240 C.3     1  UNL1        0.0000
     32 C         115.8262  148.7907   -2.7050 C.3     1  UNL1        0.0000
     33 C         115.1742  147.4505   -3.0206 C.3     1  UNL1        0.0000
     34 C         115.9858  146.4501   -3.8379 C.3     1  UNL1        0.0000
     35 O         117.3932  146.6647   -3.9317 O.3     1  UNL1        0.0000
     36 C         117.8950  147.9522   -3.6899 C.3     1  UNL1        0.0000
     37 O         120.3736  148.4482    2.2892 O.3     1  UNL1        0.0000
     38 O         118.7914  146.7888    0.9942 O.3     1  UNL1        0.0000
     39 O         120.8575  148.0662   -0.4750 O.3     1  UNL1        0.0000
     40 O         117.9137  149.7236   -1.9497 O.3     1  UNL1        0.0000
     41 C         117.8884  148.7967   -4.9590 C.3     1  UNL1        0.0000
     42 O         115.2369  149.3417   -1.5492 O.3     1  UNL1        0.0000
     43 O         113.9504  147.6886   -3.6840 O.3     1  UNL1        0.0000
     44 O         115.9742  145.1552   -3.2377 O.3     1  UNL1        0.0000
     45 C         114.9001  142.0459   -4.8180 C.3     1  UNL1        0.0000
     46 O         112.8884  145.3896   -2.7032 O.3     1  UNL1        0.0000
     47 O         111.9699  143.2382   -1.5062 O.3     1  UNL1        0.0000
     48 O         114.0601  141.8498   -0.5894 O.3     1  UNL1        0.0000
     49 C         114.9436  138.4726    0.7986 C.3     1  UNL1        0.0000
     50 O         116.0318  138.0486    1.6001 O.3     1  UNL1        0.0000
     51 O         115.4071  140.7254   -4.7730 O.3     1  UNL1        0.0000
     52 O         111.6739  141.6456    0.4922 O.3     1  UNL1        0.0000
     53 O         113.5222  142.7732    2.0577 O.3     1  UNL1        0.0000
     54 O         114.8645  140.9891    4.0488 O.3     1  UNL1        0.0000
     55 C         117.7961  140.5265    3.8163 C.3     1  UNL1        0.0000
     56 O         117.1408  139.2875    4.0099 O.3     1  UNL1        0.0000
     57 O         114.3419  143.9960    4.4717 O.3     1  UNL1        0.0000
     58 O         115.8038  145.0820    6.2549 O.3     1  UNL1        0.0000
     59 O         118.4830  144.6127    5.7542 O.3     1  UNL1        0.0000
     60 C         119.6377  152.1740   -0.4973 C.3     1  UNL1        0.0000
     61 O         121.0119  152.4677   -0.7536 O.3     1  UNL1        0.0000
     62 C         118.3870  147.8509    6.0956 C.3     1  UNL1        0.0000
     63 O         117.7937  147.1970    7.2028 O.3     1  UNL1        0.0000
     64 O         116.6621  148.6936   -5.6502 O.3     1  UNL1        0.0000
     65 O         120.8150  144.1327    4.1453 O.3     1  UNL1        0.0000
     66 O         121.3206  146.1119    2.1665 O.3     1  UNL1        0.0000
     67 C         125.4464  160.1592    4.1227 C.3     1  UNL1        0.0000
     68 C         126.3054  159.4314    3.0663 C.3     1  UNL1        0.0000
     69 C         127.5839  160.2204    2.8384 C.3     1  UNL1        0.0000
     70 C         128.1210  160.6156    4.2104 C.3     1  UNL1        0.0000
     71 C         127.1938  161.5665    4.9532 C.3     1  UNL1        0.0000
     72 O         125.8867  161.4755    4.4050 O.3     1  UNL1        0.0000
     73 C         127.0247  163.9739    5.2839 C.3     1  UNL1        0.0000
     74 C         127.8477  164.8777    6.1892 C.3     1  UNL1        0.0000
     75 C         128.6311  165.9239    5.3970 C.3     1  UNL1        0.0000
     76 C         127.6320  166.8497    4.6576 C.3     1  UNL1        0.0000
     77 C         126.3950  166.0033    4.2591 C.3     1  UNL1        0.0000
     78 O         126.7625  164.6581    4.0757 O.3     1  UNL1        0.0000
     79 C         125.4505  159.5510    0.7242 C.3     1  UNL1        0.0000
     80 O         125.1292  158.4839   -0.1703 O.3     1  UNL1        0.0000
     81 C         124.4766  158.8010   -1.3930 C.3     1  UNL1        0.0000
     82 C         124.5524  160.3299   -1.7541 C.3     1  UNL1        0.0000
     83 C         124.0338  161.1522   -0.5701 C.3     1  UNL1        0.0000
     84 C         124.2828  160.4967    0.7853 C.3     1  UNL1        0.0000
     85 C         123.6359  163.1266   -3.3560 C.3     1  UNL1        0.0000
     86 C         124.1663  161.7673   -3.7984 C.3     1  UNL1        0.0000
     87 O         125.4797  161.7923   -4.3348 O.3     1  UNL1        0.0000
     88 C         125.7684  162.9063   -5.1942 C.3     1  UNL1        0.0000
     89 C         125.7559  164.2008   -4.3446 C.3     1  UNL1        0.0000
     90 C         124.3227  164.3875   -3.9175 C.3     1  UNL1        0.0000
     91 C         126.9617  167.9167   -2.5602 C.3     1  UNL1        0.0000
     92 C         126.6641  167.5704   -4.0234 C.3     1  UNL1        0.0000
     93 C         127.2119  166.2254   -4.4805 C.3     1  UNL1        0.0000
     94 O         128.0066  165.6596   -3.4665 O.3     1  UNL1        0.0000
     95 C         129.0118  166.5147   -2.9298 C.3     1  UNL1        0.0000
     96 C         128.4666  167.8203   -2.3019 C.3     1  UNL1        0.0000
     97 C         129.2397  168.0424    3.1186 C.3     1  UNL1        0.0000
     98 C         129.9455  167.0780    2.1785 C.3     1  UNL1        0.0000
     99 C         129.1118  166.7759    0.9452 C.3     1  UNL1        0.0000
    100 C         128.4855  167.9683    0.2265 C.3     1  UNL1        0.0000
    101 O         128.5963  169.2162    0.9283 O.3     1  UNL1        0.0000
    102 C         129.1646  169.3109    2.2290 C.3     1  UNL1        0.0000
    103 O         127.7559  162.8547    4.7887 O.3     1  UNL1        0.0000
    104 O         128.6880  164.1333    7.0335 O.3     1  UNL1        0.0000
    105 O         129.4441  166.6525    6.2883 O.3     1  UNL1        0.0000
    106 O         127.9555  167.6050    3.4880 O.3     1  UNL1        0.0000
    107 C         130.5051  170.0725    2.1644 C.3     1  UNL1        0.0000
    108 O         130.2616  165.9008    2.8576 O.3     1  UNL1        0.0000
    109 O         128.0864  165.8948    1.3491 O.3     1  UNL1        0.0000
    110 O         129.0740  168.1998   -1.0587 O.3     1  UNL1        0.0000
    111 C         130.2135  166.6211   -3.8911 C.3     1  UNL1        0.0000
    112 O         126.4728  169.2230   -2.3731 O.3     1  UNL1        0.0000
    113 O         125.2847  167.6882   -4.2799 O.3     1  UNL1        0.0000
    114 O         126.2397  165.3261   -5.0522 O.3     1  UNL1        0.0000
    115 C         125.0252  162.8021   -6.5430 C.3     1  UNL1        0.0000
    116 O         124.8252  164.0176   -7.2435 O.3     1  UNL1        0.0000
    117 O         130.5542  167.9466   -4.2573 O.3     1  UNL1        0.0000
    118 O         123.5692  164.8327   -5.0244 O.3     1  UNL1        0.0000
    119 O         122.2622  163.1893   -3.7040 O.3     1  UNL1        0.0000
    120 O         123.8881  160.6083   -2.9785 O.3     1  UNL1        0.0000
    121 C         123.1164  158.0265   -1.4681 C.3     1  UNL1        0.0000
    122 O         123.2299  156.5995   -1.6268 O.3     1  UNL1        0.0000
    123 O         124.7299  162.3771   -0.5166 O.3     1  UNL1        0.0000
    124 O         123.1544  159.7638    1.2064 O.3     1  UNL1        0.0000
    125 O         125.6043  158.8674    1.9641 O.3     1  UNL1        0.0000
    126 C         125.1627  166.1410    5.1500 C.3     1  UNL1        0.0000
    127 O         124.1938  165.2050    4.7167 O.3     1  UNL1        0.0000
    128 C         125.2963  159.3613    5.4254 C.3     1  UNL1        0.0000
    129 O         124.7116  158.0985    5.1638 O.3     1  UNL1        0.0000
    130 O         131.3072  169.6721    1.0663 O.3     1  UNL1        0.0000
    131 O         128.5926  159.4450    2.2350 O.3     1  UNL1        0.0000
    132 O         129.3863  161.2105    4.0144 O.3     1  UNL1        0.0000
    133 C         122.0398  155.0906    1.2319 C.ar    1  UNL1        0.0000
    134 N         121.5217  154.0039    0.8267 N.ar    1  UNL1        0.0000
    135 C         121.4887  153.7522   -0.4129 C.ar    1  UNL1        0.0000
    136 N         121.9978  154.6103   -1.2220 N.ar    1  UNL1        0.0000
    137 C         122.5254  155.7060   -0.8096 C.ar    1  UNL1        0.0000
    138 N         122.5327  155.9378    0.4383 N.ar    1  UNL1        0.0000
    139 Cl        122.0868  155.4182    2.9301 Cl      1  UNL1        0.0000
    140 H         117.3162  146.6305    4.7484 H       1  UNL1        0.0000
    141 H         120.0101  145.9009    5.8974 H       1  UNL1        0.0000
    142 H         119.2745  144.9380    3.0840 H       1  UNL1        0.0000
    143 H         121.7474  146.4853    4.1122 H       1  UNL1        0.0000
    144 H         120.4881  148.3819    4.3303 H       1  UNL1        0.0000
    145 H         118.5519  149.4768    2.3349 H       1  UNL1        0.0000
    146 H         117.6396  148.3572    0.4587 H       1  UNL1        0.0000
    147 H         119.2562  147.4049   -1.3976 H       1  UNL1        0.0000
    148 H         119.9640  149.8718   -2.0629 H       1  UNL1        0.0000
    149 H         118.1746  150.8076    0.1820 H       1  UNL1        0.0000
    150 H         117.2185  144.5808    4.0701 H       1  UNL1        0.0000
    151 H         117.0626  141.3082    5.6613 H       1  UNL1        0.0000
    152 H         115.8532  142.5710    3.1249 H       1  UNL1        0.0000
    153 H         114.5326  142.5673    5.8993 H       1  UNL1        0.0000
    154 H         116.5650  143.2852    6.7960 H       1  UNL1        0.0000
    155 H         112.3736  141.4600    3.0970 H       1  UNL1        0.0000
    156 H         113.9985  139.5798    2.9471 H       1  UNL1        0.0000
    157 H         115.8830  140.1646   -0.0781 H       1  UNL1        0.0000
    158 H         113.3730  139.8922   -0.7682 H       1  UNL1        0.0000
    159 H         112.1745  139.8325    1.2654 H       1  UNL1        0.0000
    160 H         114.2673  144.5631   -1.4518 H       1  UNL1        0.0000
    161 H         112.5652  142.8800   -3.3883 H       1  UNL1        0.0000
    162 H         113.5953  140.9779   -2.4628 H       1  UNL1        0.0000
    163 H         116.5322  142.8965   -3.8055 H       1  UNL1        0.0000
    164 H         114.4661  144.5618   -4.5341 H       1  UNL1        0.0000
    165 H         117.2623  147.7848   -1.6130 H       1  UNL1        0.0000
    166 H         115.6868  149.5419   -3.5115 H       1  UNL1        0.0000
    167 H         114.9137  146.9847   -2.0417 H       1  UNL1        0.0000
    168 H         115.6187  146.3791   -4.8867 H       1  UNL1        0.0000
    169 H         118.9850  147.7990   -3.4855 H       1  UNL1        0.0000
    170 H         119.7114  146.5737    1.1607 H       1  UNL1        0.0000
    171 H         121.3044  147.8101   -1.2844 H       1  UNL1        0.0000
    172 H         118.6696  148.4514   -5.6748 H       1  UNL1        0.0000
    173 H         118.0695  149.8702   -4.7300 H       1  UNL1        0.0000
    174 H         115.6536  150.1904   -1.3777 H       1  UNL1        0.0000
    175 H         113.2398  147.2083   -3.2577 H       1  UNL1        0.0000
    176 H         113.7942  141.9686   -4.8577 H       1  UNL1        0.0000
    177 H         115.2403  142.4955   -5.7783 H       1  UNL1        0.0000
    178 H         112.1044  145.2000   -2.1791 H       1  UNL1        0.0000
    179 H         111.5313  142.4020   -1.3384 H       1  UNL1        0.0000
    180 H         114.0075  138.1449    1.2990 H       1  UNL1        0.0000
    181 H         115.0107  137.9406   -0.1771 H       1  UNL1        0.0000
    182 H         116.0729  138.6155    2.3761 H       1  UNL1        0.0000
    183 H         116.3528  140.7438   -4.6108 H       1  UNL1        0.0000
    184 H         112.0540  142.5323    0.4656 H       1  UNL1        0.0000
    185 H         113.6703  143.2594    2.8692 H       1  UNL1        0.0000
    186 H         118.8429  140.3746    4.1665 H       1  UNL1        0.0000
    187 H         117.8266  140.7401    2.7263 H       1  UNL1        0.0000
    188 H         117.7064  138.5809    3.6864 H       1  UNL1        0.0000
    189 H         114.2608  144.7790    5.0230 H       1  UNL1        0.0000
    190 H         116.4978  145.5604    6.7194 H       1  UNL1        0.0000
    191 H         119.0535  152.5106   -1.3833 H       1  UNL1        0.0000
    192 H         119.3091  152.8029    0.3651 H       1  UNL1        0.0000
    193 H         117.7876  148.7668    5.8945 H       1  UNL1        0.0000
    194 H         119.4121  148.1560    6.3995 H       1  UNL1        0.0000
    195 H         117.8147  147.7737    7.9695 H       1  UNL1        0.0000
    196 H         116.6208  147.8442   -6.0964 H       1  UNL1        0.0000
    197 H         121.2478  143.8933    3.3214 H       1  UNL1        0.0000
    198 H         121.6337  146.9116    1.7344 H       1  UNL1        0.0000
    199 H         124.4143  160.2757    3.7128 H       1  UNL1        0.0000
    200 H         126.6709  158.5029    3.5836 H       1  UNL1        0.0000
    201 H         127.4090  161.1169    2.1990 H       1  UNL1        0.0000
    202 H         128.3030  159.7043    4.8364 H       1  UNL1        0.0000
    203 H         127.1646  161.3423    6.0410 H       1  UNL1        0.0000
    204 H         126.0841  163.6310    5.7626 H       1  UNL1        0.0000
    205 H         127.1811  165.4303    6.9041 H       1  UNL1        0.0000
    206 H         129.2945  165.3346    4.7408 H       1  UNL1        0.0000
    207 H         127.2996  167.6054    5.4114 H       1  UNL1        0.0000
    208 H         126.0362  166.3467    3.2508 H       1  UNL1        0.0000
    209 H         126.4031  160.0216    0.4041 H       1  UNL1        0.0000
    210 H         125.0901  158.3054   -2.1910 H       1  UNL1        0.0000
    211 H         125.6324  160.5680   -1.9122 H       1  UNL1        0.0000
    212 H         122.9505  161.3894   -0.6899 H       1  UNL1        0.0000
    213 H         124.4551  161.2743    1.5666 H       1  UNL1        0.0000
    214 H         123.6244  163.2205   -2.2521 H       1  UNL1        0.0000
    215 H         123.5321  161.5098   -4.6857 H       1  UNL1        0.0000
    216 H         126.8446  162.7825   -5.4488 H       1  UNL1        0.0000
    217 H         126.3832  164.0291   -3.4422 H       1  UNL1        0.0000
    218 H         124.2550  165.2162   -3.1591 H       1  UNL1        0.0000
    219 H         126.3852  167.2238   -1.8918 H       1  UNL1        0.0000
    220 H         127.1371  168.3645   -4.6685 H       1  UNL1        0.0000
    221 H         127.9049  166.4366   -5.3351 H       1  UNL1        0.0000
    222 H         129.3818  165.9169   -2.0517 H       1  UNL1        0.0000
    223 H         128.8212  168.6362   -2.9887 H       1  UNL1        0.0000
    224 H         129.8026  168.2516    4.0507 H       1  UNL1        0.0000
    225 H         130.9394  167.4914    1.8981 H       1  UNL1        0.0000
    226 H         129.7542  166.1874    0.2483 H       1  UNL1        0.0000
    227 H         127.3915  167.8060    0.0774 H       1  UNL1        0.0000
    228 H         128.4928  170.0117    2.7975 H       1  UNL1        0.0000
    229 H         129.0177  164.7303    7.7210 H       1  UNL1        0.0000
    230 H         130.3384  166.2939    6.2849 H       1  UNL1        0.0000
    231 H         130.3575  171.1718    2.0618 H       1  UNL1        0.0000
    232 H         131.1158  169.9093    3.0830 H       1  UNL1        0.0000
    233 H         130.6233  166.1622    3.7299 H       1  UNL1        0.0000
    234 H         128.4269  165.3062    2.0328 H       1  UNL1        0.0000
    235 H         131.1324  166.1774   -3.4423 H       1  UNL1        0.0000
    236 H         130.0342  166.0787   -4.8436 H       1  UNL1        0.0000
    237 H         125.5498  169.2312   -2.6534 H       1  UNL1        0.0000
    238 H         124.9934  167.0634   -4.9456 H       1  UNL1        0.0000
    239 H         125.5948  162.1342   -7.2382 H       1  UNL1        0.0000
    240 H         124.0137  162.3496   -6.4576 H       1  UNL1        0.0000
    241 H         124.6499  163.8123   -8.1757 H       1  UNL1        0.0000
    242 H         129.8182  168.3915   -4.6839 H       1  UNL1        0.0000
    243 H         124.1597  165.0706   -5.7394 H       1  UNL1        0.0000
    244 H         122.0388  164.0991   -3.9129 H       1  UNL1        0.0000
    245 H         122.4598  158.2566   -0.6067 H       1  UNL1        0.0000
    246 H         122.5694  158.3940   -2.3678 H       1  UNL1        0.0000
    247 H         124.3027  162.9673    0.1095 H       1  UNL1        0.0000
    248 H         123.4483  158.9240    1.5764 H       1  UNL1        0.0000
    249 H         124.7263  167.1572    5.0773 H       1  UNL1        0.0000
    250 H         125.3274  165.9423    6.2319 H       1  UNL1        0.0000
    251 H         123.4784  165.1339    5.3567 H       1  UNL1        0.0000
    252 H         126.2649  159.1549    5.9248 H       1  UNL1        0.0000
    253 H         124.6346  159.8785    6.1554 H       1  UNL1        0.0000
    254 H         124.6442  157.5842    5.9750 H       1  UNL1        0.0000
    255 H         132.2346  169.6608    1.3226 H       1  UNL1        0.0000
    256 H         129.3989  159.9691    2.2777 H       1  UNL1        0.0000
    257 H         129.4930  161.9392    4.6314 H       1  UNL1        0.0000
@<TRIPOS>BOND
     1     1     2     1
     2     1     6     1
     3     1    62     1
     4     1   140     1
     5     2     3     1
     6     2    59     1
     7     2   141     1
     8     3     4     1
     9     3    65     1
    10     3   142     1
    11     4     5     1
    12     4    66     1
    13     4   143     1
    14     5     6     1
    15     5    37     1
    16     5   144     1
    17     7     8     1
    18     7    12     1
    19     7    37     1
    20     7   145     1
    21     8     9     1
    22     8    38     1
    23     8   146     1
    24     9    10     1
    25     9    39     1
    26     9   147     1
    27    10    11     1
    28    10    40     1
    29    10   148     1
    30    11    12     1
    31    11    60     1
    32    11   149     1
    33    13    14     1
    34    13    18     1
    35    13    59     1
    36    13   150     1
    37    14    15     1
    38    15    16     1
    39    15    55     1
    40    15   151     1
    41    16    17     1
    42    16    54     1
    43    16   152     1
    44    17    18     1
    45    17    57     1
    46    17   153     1
    47    18    58     1
    48    18   154     1
    49    19    20     1
    50    19    24     1
    51    19    53     1
    52    19   155     1
    53    20    21     1
    54    20    54     1
    55    20   156     1
    56    21    22     1
    57    22    23     1
    58    22    49     1
    59    22   157     1
    60    23    24     1
    61    23    48     1
    62    23   158     1
    63    24    52     1
    64    24   159     1
    65    25    26     1
    66    25    30     1
    67    25    46     1
    68    25   160     1
    69    26    27     1
    70    26    47     1
    71    26   161     1
    72    27    28     1
    73    27    48     1
    74    27   162     1
    75    28    29     1
    76    29    30     1
    77    29    45     1
    78    29   163     1
    79    30    44     1
    80    30   164     1
    81    31    32     1
    82    31    36     1
    83    31    40     1
    84    31   165     1
    85    32    33     1
    86    32    42     1
    87    32   166     1
    88    33    34     1
    89    33    43     1
    90    33   167     1
    91    34    35     1
    92    34    44     1
    93    34   168     1
    94    35    36     1
    95    36    41     1
    96    36   169     1
    97    38   170     1
    98    39   171     1
    99    41    64     1
   100    41   172     1
   101    41   173     1
   102    42   174     1
   103    43   175     1
   104    45    51     1
   105    45   176     1
   106    45   177     1
   107    46   178     1
   108    47   179     1
   109    49    50     1
   110    49   180     1
   111    49   181     1
   112    50   182     1
   113    51   183     1
   114    52   184     1
   115    53   185     1
   116    55    56     1
   117    55   186     1
   118    55   187     1
   119    56   188     1
   120    57   189     1
   121    58   190     1
   122    60    61     1
   123    60   191     1
   124    60   192     1
   125    61   135     1
   126    62    63     1
   127    62   193     1
   128    62   194     1
   129    63   195     1
   130    64   196     1
   131    65   197     1
   132    66   198     1
   133    67    68     1
   134    67    72     1
   135    67   128     1
   136    67   199     1
   137    68    69     1
   138    68   125     1
   139    68   200     1
   140    69    70     1
   141    69   131     1
   142    69   201     1
   143    70    71     1
   144    70   132     1
   145    70   202     1
   146    71    72     1
   147    71   103     1
   148    71   203     1
   149    73    74     1
   150    73    78     1
   151    73   103     1
   152    73   204     1
   153    74    75     1
   154    74   104     1
   155    74   205     1
   156    75    76     1
   157    75   105     1
   158    75   206     1
   159    76    77     1
   160    76   106     1
   161    76   207     1
   162    77    78     1
   163    77   126     1
   164    77   208     1
   165    79    80     1
   166    79    84     1
   167    79   125     1
   168    79   209     1
   169    80    81     1
   170    81    82     1
   171    81   121     1
   172    81   210     1
   173    82    83     1
   174    82   120     1
   175    82   211     1
   176    83    84     1
   177    83   123     1
   178    83   212     1
   179    84   124     1
   180    84   213     1
   181    85    86     1
   182    85    90     1
   183    85   119     1
   184    85   214     1
   185    86    87     1
   186    86   120     1
   187    86   215     1
   188    87    88     1
   189    88    89     1
   190    88   115     1
   191    88   216     1
   192    89    90     1
   193    89   114     1
   194    89   217     1
   195    90   118     1
   196    90   218     1
   197    91    92     1
   198    91    96     1
   199    91   112     1
   200    91   219     1
   201    92    93     1
   202    92   113     1
   203    92   220     1
   204    93    94     1
   205    93   114     1
   206    93   221     1
   207    94    95     1
   208    95    96     1
   209    95   111     1
   210    95   222     1
   211    96   110     1
   212    96   223     1
   213    97    98     1
   214    97   102     1
   215    97   106     1
   216    97   224     1
   217    98    99     1
   218    98   108     1
   219    98   225     1
   220    99   100     1
   221    99   109     1
   222    99   226     1
   223   100   101     1
   224   100   110     1
   225   100   227     1
   226   101   102     1
   227   102   107     1
   228   102   228     1
   229   104   229     1
   230   105   230     1
   231   107   130     1
   232   107   231     1
   233   107   232     1
   234   108   233     1
   235   109   234     1
   236   111   117     1
   237   111   235     1
   238   111   236     1
   239   112   237     1
   240   113   238     1
   241   115   116     1
   242   115   239     1
   243   115   240     1
   244   116   241     1
   245   117   242     1
   246   118   243     1
   247   119   244     1
   248   121   122     1
   249   121   245     1
   250   121   246     1
   251   122   137     1
   252   123   247     1
   253   124   248     1
   254   126   127     1
   255   126   249     1
   256   126   250     1
   257   127   251     1
   258   128   129     1
   259   128   252     1
   260   128   253     1
   261   129   254     1
   262   130   255     1
   263   131   256     1
   264   132   257     1
   265   133   134     1
   266   133   138     2
   267   133   139     1
   268   134   135     2
   269   135   136     1
   270   136   137     2
   271   137   138     1
