@<TRIPOS>MOLECULE
generated by VMD
257  271    1    0    0
SMALL
NO_CHARGES
****
Energy = 0

@<TRIPOS>ATOM
      1 C         101.0218  243.5917    4.9021 C.3     1  UNL1        0.0000
      2 C         102.4558  243.1111    5.1463 C.3     1  UNL1        0.0000
      3 C         103.0441  242.4882    3.8962 C.3     1  UNL1        0.0000
      4 C         102.1332  241.3461    3.4611 C.3     1  UNL1        0.0000
      5 C         100.6517  241.7146    3.4982 C.3     1  UNL1        0.0000
      6 O         100.4773  243.0941    3.7059 O.3     1  UNL1        0.0000
      7 C          99.1442  242.1418    1.6152 C.3     1  UNL1        0.0000
      8 C          99.9187  242.9498    0.5894 C.3     1  UNL1        0.0000
      9 C          99.9991  242.1879   -0.7186 C.3     1  UNL1        0.0000
     10 C          98.5840  242.1185   -1.3015 C.3     1  UNL1        0.0000
     11 C          97.5708  241.7909   -0.1609 C.3     1  UNL1        0.0000
     12 O          98.2009  241.2608    0.9890 O.3     1  UNL1        0.0000
     13 C         103.6083  245.2145    4.9696 C.3     1  UNL1        0.0000
     14 O         104.9460  245.0167    4.5518 O.3     1  UNL1        0.0000
     15 C         105.7704  246.1574    4.6009 C.3     1  UNL1        0.0000
     16 C         105.0007  247.3918    4.1164 C.3     1  UNL1        0.0000
     17 C         103.8971  247.6876    5.1346 C.3     1  UNL1        0.0000
     18 C         103.4620  246.4272    5.8580 C.3     1  UNL1        0.0000
     19 C         104.9615  250.0378    2.3217 C.3     1  UNL1        0.0000
     20 C         106.0526  249.1031    2.7835 C.3     1  UNL1        0.0000
     21 O         106.3378  248.1165    1.8248 O.3     1  UNL1        0.0000
     22 C         106.8417  248.6233    0.6179 C.3     1  UNL1        0.0000
     23 C         105.9223  249.6798   -0.0043 C.3     1  UNL1        0.0000
     24 C         105.4385  250.6909    1.0350 C.3     1  UNL1        0.0000
     25 C         102.2961  248.6564   -2.4550 C.3     1  UNL1        0.0000
     26 C         103.3487  249.7415   -2.4014 C.3     1  UNL1        0.0000
     27 C         104.6919  249.1574   -2.0064 C.3     1  UNL1        0.0000
     28 O         104.8123  247.8068   -2.4179 O.3     1  UNL1        0.0000
     29 C         104.1763  247.4975   -3.6309 C.3     1  UNL1        0.0000
     30 C         102.6400  247.6380   -3.5407 C.3     1  UNL1        0.0000
     31 C          99.1543  244.2256   -2.4240 C.3     1  UNL1        0.0000
     32 C          98.5391  245.5812   -2.7050 C.3     1  UNL1        0.0000
     33 C          99.6662  246.5563   -3.0206 C.3     1  UNL1        0.0000
     34 C         100.8419  246.0297   -3.8379 C.3     1  UNL1        0.0000
     35 O         100.9968  244.6144   -3.9317 O.3     1  UNL1        0.0000
     36 C          99.8820  243.7981   -3.6899 C.3     1  UNL1        0.0000
     37 O         100.0409  241.2753    2.2892 O.3     1  UNL1        0.0000
     38 O         101.2369  243.2315    0.9942 O.3     1  UNL1        0.0000
     39 O         100.5346  240.9062   -0.4750 O.3     1  UNL1        0.0000
     40 O          98.1751  243.3239   -1.9497 O.3     1  UNL1        0.0000
     41 C          99.0642  243.5870   -4.9590 C.3     1  UNL1        0.0000
     42 O          97.8549  246.0089   -1.5492 O.3     1  UNL1        0.0000
     43 O          99.1210  247.6776   -3.6840 O.3     1  UNL1        0.0000
     44 O         102.0901  246.3743   -3.2377 O.3     1  UNL1        0.0000
     45 C         104.8181  248.2128   -4.8180 C.3     1  UNL1        0.0000
     46 O         101.0690  249.2958   -2.7032 O.3     1  UNL1        0.0000
     47 O         102.9115  250.7372   -1.5062 O.3     1  UNL1        0.0000
     48 O         104.7913  249.0750   -0.5894 O.3     1  UNL1        0.0000
     49 C         108.2820  249.0908    0.7986 C.3     1  UNL1        0.0000
     50 O         108.9720  248.1485    1.6001 O.3     1  UNL1        0.0000
     51 O         106.2245  248.0629   -4.7730 O.3     1  UNL1        0.0000
     52 O         104.3741  251.4332    0.4922 O.3     1  UNL1        0.0000
     53 O         103.7604  249.3569    2.0577 O.3     1  UNL1        0.0000
     54 O         105.8300  248.5193    4.0488 O.3     1  UNL1        0.0000
     55 C         107.0318  245.8056    3.8163 C.3     1  UNL1        0.0000
     56 O         108.0604  246.7579    4.0099 O.3     1  UNL1        0.0000
     57 O         102.7900  248.2500    4.4717 O.3     1  UNL1        0.0000
     58 O         102.1169  246.5578    6.2549 O.3     1  UNL1        0.0000
     59 O         103.2603  244.0898    5.7542 O.3     1  UNL1        0.0000
     60 C          96.2513  241.0272   -0.4973 C.3     1  UNL1        0.0000
     61 O          96.3212  239.6237   -0.7536 O.3     1  UNL1        0.0000
     62 C         100.1065  243.3487    6.0956 C.3     1  UNL1        0.0000
     63 O         100.5856  244.0905    7.2028 O.3     1  UNL1        0.0000
     64 O          98.8481  244.7986   -5.6502 O.3     1  UNL1        0.0000
     65 O         104.3245  241.9600    4.1453 O.3     1  UNL1        0.0000
     66 O         102.5422  240.9619    2.1665 O.3     1  UNL1        0.0000
     67 C          90.0309  233.3583    4.1227 C.3     1  UNL1        0.0000
     68 C          90.9553  232.7156    3.0663 C.3     1  UNL1        0.0000
     69 C          90.5221  231.2771    2.8384 C.3     1  UNL1        0.0000
     70 C          90.2785  230.6563    4.2104 C.3     1  UNL1        0.0000
     71 C          89.1210  231.3075    4.9532 C.3     1  UNL1        0.0000
     72 O          88.8723  232.5940    4.4050 O.3     1  UNL1        0.0000
     73 C          86.7511  230.8510    5.2839 C.3     1  UNL1        0.0000
     74 C          86.0897  229.8230    6.1892 C.3     1  UNL1        0.0000
     75 C          85.2806  228.7966    5.3970 C.3     1  UNL1        0.0000
     76 C          84.1287  229.5237    4.6576 C.3     1  UNL1        0.0000
     77 C          84.6281  230.9369    4.2591 C.3     1  UNL1        0.0000
     78 O          86.0225  230.9282    4.0757 O.3     1  UNL1        0.0000
     79 C          90.6196  233.5109    0.7242 C.3     1  UNL1        0.0000
     80 O          91.5680  234.0961   -0.1703 O.3     1  UNL1        0.0000
     81 C          91.0936  234.6450   -1.3930 C.3     1  UNL1        0.0000
     82 C          89.6358  234.1782   -1.7541 C.3     1  UNL1        0.0000
     83 C          88.7076  234.4676   -0.5701 C.3     1  UNL1        0.0000
     84 C          89.4051  234.3958    0.7853 C.3     1  UNL1        0.0000
     85 C          86.6974  234.3437   -3.3560 C.3     1  UNL1        0.0000
     86 C          88.1473  234.1811   -3.7984 C.3     1  UNL1        0.0000
     87 O          88.4613  232.9056   -4.3348 O.3     1  UNL1        0.0000
     88 C          87.4593  232.3398   -5.1942 C.3     1  UNL1        0.0000
     89 C          86.2052  232.0186   -4.3446 C.3     1  UNL1        0.0000
     90 C          85.6558  233.3553   -3.9175 C.3     1  UNL1        0.0000
     91 C          82.9250  229.8967   -2.5602 C.3     1  UNL1        0.0000
     92 C          83.1831  230.2734   -4.0234 C.3     1  UNL1        0.0000
     93 C          84.6238  230.0903   -4.4805 C.3     1  UNL1        0.0000
     94 O          85.3751  229.4682   -3.4665 O.3     1  UNL1        0.0000
     95 C          84.8077  228.2767   -2.9298 C.3     1  UNL1        0.0000
     96 C          83.4057  228.4673   -2.3019 C.3     1  UNL1        0.0000
     97 C          83.3901  227.6631    3.1186 C.3     1  UNL1        0.0000
     98 C          84.5038  227.2295    2.1785 C.3     1  UNL1        0.0000
     99 C          84.5810  228.1128    0.9452 C.3     1  UNL1        0.0000
    100 C          83.2675  228.4110    0.2265 C.3     1  UNL1        0.0000
    101 O          82.0903  227.9826    0.9283 O.3     1  UNL1        0.0000
    102 C          82.1451  227.4090    2.2290 C.3     1  UNL1        0.0000
    103 O          88.0209  230.4326    4.7887 O.3     1  UNL1        0.0000
    104 O          87.0254  229.2028    7.0335 O.3     1  UNL1        0.0000
    105 O          84.7858  227.8235    6.2883 O.3     1  UNL1        0.0000
    106 O          83.4821  229.0167    3.4880 O.3     1  UNL1        0.0000
    107 C          81.7543  225.9177    2.1644 C.3     1  UNL1        0.0000
    108 O          85.7226  227.2271    2.8576 O.3     1  UNL1        0.0000
    109 O          85.1684  229.3305    1.3491 O.3     1  UNL1        0.0000
    110 O          83.1954  227.7827   -1.0587 O.3     1  UNL1        0.0000
    111 C          85.0143  227.0881   -3.8911 C.3     1  UNL1        0.0000
    112 O          81.5370  230.0327   -2.3731 O.3     1  UNL1        0.0000
    113 O          82.7141  231.5760   -4.2799 O.3     1  UNL1        0.0000
    114 O          85.2424  231.2614   -5.0522 O.3     1  UNL1        0.0000
    115 C          87.3687  233.0848   -6.5430 C.3     1  UNL1        0.0000
    116 O          86.1426  232.9651   -7.2435 O.3     1  UNL1        0.0000
    117 O          83.8211  226.4176   -4.2573 O.3     1  UNL1        0.0000
    118 O          85.0316  233.9689   -5.0244 O.3     1  UNL1        0.0000
    119 O          86.2831  235.6549   -3.7040 O.3     1  UNL1        0.0000
    120 O          89.1956  234.7484   -2.9785 O.3     1  UNL1        0.0000
    121 C          91.4917  236.1589   -1.4681 C.3     1  UNL1        0.0000
    122 O          92.8998  236.4165   -1.6268 O.3     1  UNL1        0.0000
    123 O          87.7032  233.4796   -0.5166 O.3     1  UNL1        0.0000
    124 O          89.8228  235.6747    1.2064 O.3     1  UNL1        0.0000
    125 O          91.3197  233.5383    1.9641 O.3     1  UNL1        0.0000
    126 C          84.1777  232.0922    5.1500 C.3     1  UNL1        0.0000
    127 O          84.8327  233.2694    4.7167 O.3     1  UNL1        0.0000
    128 C          90.7632  233.7088    5.4254 C.3     1  UNL1        0.0000
    129 O          91.8329  234.5989    5.1638 O.3     1  UNL1        0.0000
    130 O          82.3478  225.2458    1.0663 O.3     1  UNL1        0.0000
    131 O          91.5311  230.5021    2.2350 O.3     1  UNL1        0.0000
    132 O          90.0295  229.2806    4.0144 O.3     1  UNL1        0.0000
    133 C          94.0514  237.9550    1.2319 C.ar    1  UNL1        0.0000
    134 N          94.9681  238.7355    0.8267 N.ar    1  UNL1        0.0000
    135 C          95.2029  238.8322   -0.4129 C.ar    1  UNL1        0.0000
    136 N          94.5047  238.1194   -1.2220 N.ar    1  UNL1        0.0000
    137 C          93.5818  237.3273   -0.8096 C.ar    1  UNL1        0.0000
    138 N          93.3597  237.2606    0.4383 N.ar    1  UNL1        0.0000
    139 Cl         93.7470  237.8253    2.9301 Cl      1  UNL1        0.0000
    140 H         101.0101  244.6977    4.7484 H       1  UNL1        0.0000
    141 H         102.4087  242.2825    5.8974 H       1  UNL1        0.0000
    142 H         103.1497  243.2412    3.0840 H       1  UNL1        0.0000
    143 H         102.2914  240.4533    4.1122 H       1  UNL1        0.0000
    144 H         100.1344  241.1818    4.3303 H       1  UNL1        0.0000
    145 H          98.5779  242.7708    2.3349 H       1  UNL1        0.0000
    146 H          99.4248  243.9406    0.4587 H       1  UNL1        0.0000
    147 H         100.7613  242.6237   -1.3976 H       1  UNL1        0.0000
    148 H          98.5599  241.3046   -2.0629 H       1  UNL1        0.0000
    149 H          97.1949  242.7927    0.1820 H       1  UNL1        0.0000
    150 H         102.9655  245.3198    4.0701 H       1  UNL1        0.0000
    151 H         106.0876  246.3131    5.6613 H       1  UNL1        0.0000
    152 H         104.5560  247.1566    3.1249 H       1  UNL1        0.0000
    153 H         104.2195  248.4336    5.8993 H       1  UNL1        0.0000
    154 H         104.0492  246.2849    6.7960 H       1  UNL1        0.0000
    155 H         104.7337  250.8050    3.0970 H       1  UNL1        0.0000
    156 H         106.9688  249.7189    2.9471 H       1  UNL1        0.0000
    157 H         106.8890  247.7474   -0.0781 H       1  UNL1        0.0000
    158 H         106.5059  250.2429   -0.7682 H       1  UNL1        0.0000
    159 H         106.2550  251.4163    1.2654 H       1  UNL1        0.0000
    160 H         102.2228  248.1761   -1.4518 H       1  UNL1        0.0000
    161 H         103.4108  250.2542   -3.3883 H       1  UNL1        0.0000
    162 H         105.5141  249.7485   -2.4628 H       1  UNL1        0.0000
    163 H         104.4164  246.4167   -3.8055 H       1  UNL1        0.0000
    164 H         102.2752  247.9843   -4.5341 H       1  UNL1        0.0000
    165 H          99.8808  244.4526   -1.6130 H       1  UNL1        0.0000
    166 H          97.7773  245.5226   -3.5115 H       1  UNL1        0.0000
    167 H         100.0492  246.9280   -2.0417 H       1  UNL1        0.0000
    168 H         100.8160  246.4027   -4.8867 H       1  UNL1        0.0000
    169 H         100.3106  242.7843   -3.4855 H       1  UNL1        0.0000
    170 H         101.6817  242.3979    1.1607 H       1  UNL1        0.0000
    171 H         100.8971  240.5403   -1.2844 H       1  UNL1        0.0000
    172 H          99.5990  242.9211   -5.6748 H       1  UNL1        0.0000
    173 H          98.0736  243.1357   -4.7300 H       1  UNL1        0.0000
    174 H          97.1422  245.3876   -1.3777 H       1  UNL1        0.0000
    175 H          99.4022  248.4879   -3.2577 H       1  UNL1        0.0000
    176 H         104.6079  249.3013   -4.8577 H       1  UNL1        0.0000
    177 H         104.4712  247.7683   -5.7783 H       1  UNL1        0.0000
    178 H         101.0504  250.1021   -2.1791 H       1  UNL1        0.0000
    179 H         103.6065  251.3764   -1.3384 H       1  UNL1        0.0000
    180 H         108.3576  250.0797    1.2990 H       1  UNL1        0.0000
    181 H         108.8133  249.1629   -0.1771 H       1  UNL1        0.0000
    182 H         108.4348  247.9627    2.3761 H       1  UNL1        0.0000
    183 H         106.4503  247.1443   -4.6108 H       1  UNL1        0.0000
    184 H         103.6152  250.8376    0.4656 H       1  UNL1        0.0000
    185 H         103.3288  249.0887    2.8692 H       1  UNL1        0.0000
    186 H         107.4481  244.8332    4.1665 H       1  UNL1        0.0000
    187 H         106.8333  245.7211    2.7263 H       1  UNL1        0.0000
    188 H         108.8888  246.3932    3.6864 H       1  UNL1        0.0000
    189 H         102.0125  248.1269    5.0230 H       1  UNL1        0.0000
    190 H         101.8333  245.7640    6.7194 H       1  UNL1        0.0000
    191 H          95.7755  241.5049   -1.3833 H       1  UNL1        0.0000
    192 H          95.5589  241.1828    0.3651 H       1  UNL1        0.0000
    193 H          99.0672  243.6922    5.8945 H       1  UNL1        0.0000
    194 H         100.0756  242.2797    6.3995 H       1  UNL1        0.0000
    195 H         100.0338  243.9217    7.9695 H       1  UNL1        0.0000
    196 H          99.6582  245.0572   -6.0964 H       1  UNL1        0.0000
    197 H         104.6673  241.6034    3.3214 H       1  UNL1        0.0000
    198 H         101.8501  240.4534    1.7344 H       1  UNL1        0.0000
    199 H          89.6526  234.3256    3.7128 H       1  UNL1        0.0000
    200 H          91.9465  232.6016    3.5836 H       1  UNL1        0.0000
    201 H          89.6108  231.2152    2.1990 H       1  UNL1        0.0000
    202 H          91.2060  230.7151    4.8364 H       1  UNL1        0.0000
    203 H          89.3300  231.3934    6.0410 H       1  UNL1        0.0000
    204 H          86.8403  231.8481    5.7626 H       1  UNL1        0.0000
    205 H          85.3841  230.3248    6.9041 H       1  UNL1        0.0000
    206 H          86.0208  228.3073    4.7408 H       1  UNL1        0.0000
    207 H          83.3129  229.6503    5.4114 H       1  UNL1        0.0000
    208 H          84.2038  231.1952    3.2508 H       1  UNL1        0.0000
    209 H          90.4102  232.4692    0.4041 H       1  UNL1        0.0000
    210 H          91.7305  234.1798   -2.1910 H       1  UNL1        0.0000
    211 H          89.6837  233.0733   -1.9122 H       1  UNL1        0.0000
    212 H          88.1995  235.4533   -0.6899 H       1  UNL1        0.0000
    213 H          88.6982  234.0290    1.5666 H       1  UNL1        0.0000
    214 H          86.6036  234.3306   -2.2521 H       1  UNL1        0.0000
    215 H          88.2329  234.8603   -4.6857 H       1  UNL1        0.0000
    216 H          87.8560  231.3318   -5.4488 H       1  UNL1        0.0000
    217 H          86.5327  231.4566   -3.4422 H       1  UNL1        0.0000
    218 H          84.8376  233.2075   -3.1591 H       1  UNL1        0.0000
    219 H          83.4462  230.6322   -1.8918 H       1  UNL1        0.0000
    220 H          82.5375  229.6118   -4.6685 H       1  UNL1        0.0000
    221 H          84.5981  229.3664   -5.3351 H       1  UNL1        0.0000
    222 H          85.4806  228.0731   -2.0517 H       1  UNL1        0.0000
    223 H          82.7086  227.9146   -2.9887 H       1  UNL1        0.0000
    224 H          83.3329  227.0653    4.0507 H       1  UNL1        0.0000
    225 H          84.3602  226.1626    1.8981 H       1  UNL1        0.0000
    226 H          85.3151  227.6436    0.2483 H       1  UNL1        0.0000
    227 H          83.1427  229.5099    0.0774 H       1  UNL1        0.0000
    228 H          81.2949  227.8778    2.7975 H       1  UNL1        0.0000
    229 H          86.5334  228.7304    7.7210 H       1  UNL1        0.0000
    230 H          85.3626  227.0517    6.2849 H       1  UNL1        0.0000
    231 H          80.6541  225.7772    2.0618 H       1  UNL1        0.0000
    232 H          82.0692  225.3696    3.0830 H       1  UNL1        0.0000
    233 H          85.5632  226.8103    3.7299 H       1  UNL1        0.0000
    234 H          85.8248  229.1530    2.0328 H       1  UNL1        0.0000
    235 H          85.6796  226.3144   -3.4423 H       1  UNL1        0.0000
    236 H          85.4922  227.4010   -4.8436 H       1  UNL1        0.0000
    237 H          81.2914  230.9225   -2.6534 H       1  UNL1        0.0000
    238 H          83.2428  232.0183   -4.9456 H       1  UNL1        0.0000
    239 H          88.1607  232.7064   -7.2382 H       1  UNL1        0.0000
    240 H          87.5454  234.1787   -6.4576 H       1  UNL1        0.0000
    241 H          86.2958  233.1874   -8.1757 H       1  UNL1        0.0000
    242 H          83.2017  227.0142   -4.6839 H       1  UNL1        0.0000
    243 H          84.9537  233.3370   -5.7394 H       1  UNL1        0.0000
    244 H          85.3464  235.6365   -3.9129 H       1  UNL1        0.0000
    245 H          91.1003  236.7340   -0.6067 H       1  UNL1        0.0000
    246 H          90.9958  236.5928   -2.3678 H       1  UNL1        0.0000
    247 H          87.0229  233.7404    0.1095 H       1  UNL1        0.0000
    248 H          90.7099  235.6070    1.5764 H       1  UNL1        0.0000
    249 H          83.0834  232.2522    5.0773 H       1  UNL1        0.0000
    250 H          84.4121  231.9842    6.2319 H       1  UNL1        0.0000
    251 H          84.7172  233.9791    5.3567 H       1  UNL1        0.0000
    252 H          91.2120  232.8260    5.9248 H       1  UNL1        0.0000
    253 H          90.0931  234.2150    6.1554 H       1  UNL1        0.0000
    254 H          92.3125  234.7964    5.9750 H       1  UNL1        0.0000
    255 H          82.5975  224.3525    1.3226 H       1  UNL1        0.0000
    256 H          91.2322  229.5880    2.2777 H       1  UNL1        0.0000
    257 H          89.3528  228.9898    4.6314 H       1  UNL1        0.0000
@<TRIPOS>BOND
     1     1     2     1
     2     1     6     1
     3     1    62     1
     4     1   140     1
     5     2     3     1
     6     2    59     1
     7     2   141     1
     8     3     4     1
     9     3    65     1
    10     3   142     1
    11     4     5     1
    12     4    66     1
    13     4   143     1
    14     5     6     1
    15     5    37     1
    16     5   144     1
    17     7     8     1
    18     7    12     1
    19     7    37     1
    20     7   145     1
    21     8     9     1
    22     8    38     1
    23     8   146     1
    24     9    10     1
    25     9    39     1
    26     9   147     1
    27    10    11     1
    28    10    40     1
    29    10   148     1
    30    11    12     1
    31    11    60     1
    32    11   149     1
    33    13    14     1
    34    13    18     1
    35    13    59     1
    36    13   150     1
    37    14    15     1
    38    15    16     1
    39    15    55     1
    40    15   151     1
    41    16    17     1
    42    16    54     1
    43    16   152     1
    44    17    18     1
    45    17    57     1
    46    17   153     1
    47    18    58     1
    48    18   154     1
    49    19    20     1
    50    19    24     1
    51    19    53     1
    52    19   155     1
    53    20    21     1
    54    20    54     1
    55    20   156     1
    56    21    22     1
    57    22    23     1
    58    22    49     1
    59    22   157     1
    60    23    24     1
    61    23    48     1
    62    23   158     1
    63    24    52     1
    64    24   159     1
    65    25    26     1
    66    25    30     1
    67    25    46     1
    68    25   160     1
    69    26    27     1
    70    26    47     1
    71    26   161     1
    72    27    28     1
    73    27    48     1
    74    27   162     1
    75    28    29     1
    76    29    30     1
    77    29    45     1
    78    29   163     1
    79    30    44     1
    80    30   164     1
    81    31    32     1
    82    31    36     1
    83    31    40     1
    84    31   165     1
    85    32    33     1
    86    32    42     1
    87    32   166     1
    88    33    34     1
    89    33    43     1
    90    33   167     1
    91    34    35     1
    92    34    44     1
    93    34   168     1
    94    35    36     1
    95    36    41     1
    96    36   169     1
    97    38   170     1
    98    39   171     1
    99    41    64     1
   100    41   172     1
   101    41   173     1
   102    42   174     1
   103    43   175     1
   104    45    51     1
   105    45   176     1
   106    45   177     1
   107    46   178     1
   108    47   179     1
   109    49    50     1
   110    49   180     1
   111    49   181     1
   112    50   182     1
   113    51   183     1
   114    52   184     1
   115    53   185     1
   116    55    56     1
   117    55   186     1
   118    55   187     1
   119    56   188     1
   120    57   189     1
   121    58   190     1
   122    60    61     1
   123    60   191     1
   124    60   192     1
   125    61   135     1
   126    62    63     1
   127    62   193     1
   128    62   194     1
   129    63   195     1
   130    64   196     1
   131    65   197     1
   132    66   198     1
   133    67    68     1
   134    67    72     1
   135    67   128     1
   136    67   199     1
   137    68    69     1
   138    68   125     1
   139    68   200     1
   140    69    70     1
   141    69   131     1
   142    69   201     1
   143    70    71     1
   144    70   132     1
   145    70   202     1
   146    71    72     1
   147    71   103     1
   148    71   203     1
   149    73    74     1
   150    73    78     1
   151    73   103     1
   152    73   204     1
   153    74    75     1
   154    74   104     1
   155    74   205     1
   156    75    76     1
   157    75   105     1
   158    75   206     1
   159    76    77     1
   160    76   106     1
   161    76   207     1
   162    77    78     1
   163    77   126     1
   164    77   208     1
   165    79    80     1
   166    79    84     1
   167    79   125     1
   168    79   209     1
   169    80    81     1
   170    81    82     1
   171    81   121     1
   172    81   210     1
   173    82    83     1
   174    82   120     1
   175    82   211     1
   176    83    84     1
   177    83   123     1
   178    83   212     1
   179    84   124     1
   180    84   213     1
   181    85    86     1
   182    85    90     1
   183    85   119     1
   184    85   214     1
   185    86    87     1
   186    86   120     1
   187    86   215     1
   188    87    88     1
   189    88    89     1
   190    88   115     1
   191    88   216     1
   192    89    90     1
   193    89   114     1
   194    89   217     1
   195    90   118     1
   196    90   218     1
   197    91    92     1
   198    91    96     1
   199    91   112     1
   200    91   219     1
   201    92    93     1
   202    92   113     1
   203    92   220     1
   204    93    94     1
   205    93   114     1
   206    93   221     1
   207    94    95     1
   208    95    96     1
   209    95   111     1
   210    95   222     1
   211    96   110     1
   212    96   223     1
   213    97    98     1
   214    97   102     1
   215    97   106     1
   216    97   224     1
   217    98    99     1
   218    98   108     1
   219    98   225     1
   220    99   100     1
   221    99   109     1
   222    99   226     1
   223   100   101     1
   224   100   110     1
   225   100   227     1
   226   101   102     1
   227   102   107     1
   228   102   228     1
   229   104   229     1
   230   105   230     1
   231   107   130     1
   232   107   231     1
   233   107   232     1
   234   108   233     1
   235   109   234     1
   236   111   117     1
   237   111   235     1
   238   111   236     1
   239   112   237     1
   240   113   238     1
   241   115   116     1
   242   115   239     1
   243   115   240     1
   244   116   241     1
   245   117   242     1
   246   118   243     1
   247   119   244     1
   248   121   122     1
   249   121   245     1
   250   121   246     1
   251   122   137     1
   252   123   247     1
   253   124   248     1
   254   126   127     1
   255   126   249     1
   256   126   250     1
   257   127   251     1
   258   128   129     1
   259   128   252     1
   260   128   253     1
   261   129   254     1
   262   130   255     1
   263   131   256     1
   264   132   257     1
   265   133   134     1
   266   133   138     2
   267   133   139     1
   268   134   135     2
   269   135   136     1
   270   136   137     2
   271   137   138     1
