@<TRIPOS>MOLECULE
generated by VMD
257  271    1    0    0
SMALL
NO_CHARGES
****
Energy = 0

@<TRIPOS>ATOM
      1 C          65.8605   88.0283    4.9021 C.3     1  UNL1        0.0000
      2 C          67.2512   87.4340    5.1463 C.3     1  UNL1        0.0000
      3 C          68.1048   87.5082    3.8962 C.3     1  UNL1        0.0000
      4 C          68.1836   88.9670    3.4611 C.3     1  UNL1        0.0000
      5 C          66.8319   89.6766    3.4982 C.3     1  UNL1        0.0000
      6 O          65.7845   88.7620    3.7059 O.3     1  UNL1        0.0000
      7 C          65.4218   90.3596    1.6152 C.3     1  UNL1        0.0000
      8 C          65.4631   89.2412    0.5894 C.3     1  UNL1        0.0000
      9 C          66.0298   89.7569   -0.7186 C.3     1  UNL1        0.0000
     10 C          65.0188   90.7494   -1.3015 C.3     1  UNL1        0.0000
     11 C          64.4797   91.6678   -0.1609 C.3     1  UNL1        0.0000
     12 O          65.3028   91.6448    0.9890 O.3     1  UNL1        0.0000
     13 C          66.7138   85.0965    4.9696 C.3     1  UNL1        0.0000
     14 O          67.8447   84.3550    4.5518 O.3     1  UNL1        0.0000
     15 C          67.7021   82.9548    4.6009 C.3     1  UNL1        0.0000
     16 C          66.3065   82.5443    4.1164 C.3     1  UNL1        0.0000
     17 C          65.2855   83.0571    5.1346 C.3     1  UNL1        0.0000
     18 C          65.7983   84.2879    5.8580 C.3     1  UNL1        0.0000
     19 C          64.5182   80.5938    2.3217 C.3     1  UNL1        0.0000
     20 C          65.9546   80.5667    2.7835 C.3     1  UNL1        0.0000
     21 O          66.8236   81.1141    1.8248 O.3     1  UNL1        0.0000
     22 C          66.8631   80.4005    0.6179 C.3     1  UNL1        0.0000
     23 C          65.4740   80.2225   -0.0043 C.3     1  UNL1        0.0000
     24 C          64.4403   79.7888    1.0350 C.3     1  UNL1        0.0000
     25 C          63.4454   83.3977   -2.4550 C.3     1  UNL1        0.0000
     26 C          63.5103   81.8873   -2.4014 C.3     1  UNL1        0.0000
     27 C          64.9020   81.4307   -2.0064 C.3     1  UNL1        0.0000
     28 O          65.8899   82.3597   -2.4179 O.3     1  UNL1        0.0000
     29 C          65.6204   83.0135   -3.6309 C.3     1  UNL1        0.0000
     30 C          64.3794   83.9298   -3.5407 C.3     1  UNL1        0.0000
     31 C          64.0440   88.7963   -2.4240 C.3     1  UNL1        0.0000
     32 C          62.6832   88.1926   -2.7050 C.3     1  UNL1        0.0000
     33 C          62.8770   86.7148   -3.0206 C.3     1  UNL1        0.0000
     34 C          64.1053   86.3267   -3.8379 C.3     1  UNL1        0.0000
     35 O          65.1619   87.2809   -3.9317 O.3     1  UNL1        0.0000
     36 C          64.8718   88.6318   -3.6899 C.3     1  UNL1        0.0000
     37 O          66.6676   90.4108    2.2892 O.3     1  UNL1        0.0000
     38 O          66.2607   88.1544    0.9942 O.3     1  UNL1        0.0000
     39 O          67.2819   90.3583   -0.4750 O.3     1  UNL1        0.0000
     40 O          63.9120   90.1208   -1.9497 O.3     1  UNL1        0.0000
     41 C          64.4013   89.3332   -4.9590 C.3     1  UNL1        0.0000
     42 O          61.8878   88.3280   -1.5492 O.3     1  UNL1        0.0000
     43 O          61.7243   86.2397   -3.6840 O.3     1  UNL1        0.0000
     44 O          64.8086   85.2394   -3.2377 O.3     1  UNL1        0.0000
     45 C          65.6243   82.0525   -4.8180 C.3     1  UNL1        0.0000
     46 O          62.1037   83.7358   -2.7032 O.3     1  UNL1        0.0000
     47 O          62.5218   81.4342   -1.5062 O.3     1  UNL1        0.0000
     48 O          65.0311   81.4263   -0.5894 O.3     1  UNL1        0.0000
     49 C          67.6282   79.0938    0.7986 C.3     1  UNL1        0.0000
     50 O          68.7701   79.3390    1.6001 O.3     1  UNL1        0.0000
     51 O          66.7746   81.2295   -4.7730 O.3     1  UNL1        0.0000
     52 O          63.1517   79.9419    0.4922 O.3     1  UNL1        0.0000
     53 O          64.0736   81.9009    2.0577 O.3     1  UNL1        0.0000
     54 O          66.1765   81.1508    4.0488 O.3     1  UNL1        0.0000
     55 C          68.8783   82.3790    3.8163 C.3     1  UNL1        0.0000
     56 O          69.0136   80.9839    4.0099 O.3     1  UNL1        0.0000
     57 O          64.0845   83.3730    4.4717 O.3     1  UNL1        0.0000
     58 O          64.7067   85.0845    6.2549 O.3     1  UNL1        0.0000
     59 O          67.2016   86.1681    5.7542 O.3     1  UNL1        0.0000
     60 C          64.0017   93.1155   -0.4973 C.3     1  UNL1        0.0000
     61 O          64.9870   94.1174   -0.7536 O.3     1  UNL1        0.0000
     62 C          65.3383   88.8183    6.0956 C.3     1  UNL1        0.0000
     63 O          65.2031   87.9457    7.2028 O.3     1  UNL1        0.0000
     64 O          63.4344   88.5718   -5.6502 O.3     1  UNL1        0.0000
     65 O          69.4125   87.0516    4.1453 O.3     1  UNL1        0.0000
     66 O          68.7446   88.9821    2.1665 O.3     1  UNL1        0.0000
     67 C          64.4532  102.9796    4.1227 C.3     1  UNL1        0.0000
     68 C          65.5710  102.8452    3.0663 C.3     1  UNL1        0.0000
     69 C          66.2037  104.2078    2.8384 C.3     1  UNL1        0.0000
     70 C          66.4344  104.8334    4.2104 C.3     1  UNL1        0.0000
     71 C          65.1368  105.1166    4.9532 C.3     1  UNL1        0.0000
     72 O          64.0958  104.3208    4.4050 O.3     1  UNL1        0.0000
     73 C          63.6700  107.0330    5.2839 C.3     1  UNL1        0.0000
     74 C          63.8593  108.2406    6.1892 C.3     1  UNL1        0.0000
     75 C          63.9372  109.5453    5.3970 C.3     1  UNL1        0.0000
     76 C          62.5933  109.7679    4.6576 C.3     1  UNL1        0.0000
     77 C          62.0269  108.3802    4.2591 C.3     1  UNL1        0.0000
     78 O          63.0744  107.4597    4.0757 O.3     1  UNL1        0.0000
     79 C          64.7915  102.4742    0.7242 C.3     1  UNL1        0.0000
     80 O          65.1109  101.4066   -0.1703 O.3     1  UNL1        0.0000
     81 C          64.3916  101.3119   -1.3930 C.3     1  UNL1        0.0000
     82 C          63.6129  102.6298   -1.7541 C.3     1  UNL1        0.0000
     83 C          62.7272  103.0307   -0.5701 C.3     1  UNL1        0.0000
     84 C          63.2960  102.6206    0.7853 C.3     1  UNL1        0.0000
     85 C          61.3078  104.4596   -3.3560 C.3     1  UNL1        0.0000
     86 C          62.4991  103.6171   -3.7984 C.3     1  UNL1        0.0000
     87 O          63.5816  104.3612   -4.3348 O.3     1  UNL1        0.0000
     88 C          63.2092  105.4500   -5.1942 C.3     1  UNL1        0.0000
     89 C          62.4860  106.5237   -4.3446 C.3     1  UNL1        0.0000
     90 C          61.1868  105.8904   -3.9175 C.3     1  UNL1        0.0000
     91 C          61.4462  110.2895   -2.5602 C.3     1  UNL1        0.0000
     92 C          61.3885  109.8365   -4.0234 C.3     1  UNL1        0.0000
     93 C          62.5865  109.0155   -4.4805 C.3     1  UNL1        0.0000
     94 O          63.5613  108.9808   -3.4665 O.3     1  UNL1        0.0000
     95 C          63.9295  110.2481   -2.9298 C.3     1  UNL1        0.0000
     96 C          62.7555  111.0377   -2.3019 C.3     1  UNL1        0.0000
     97 C          63.2785  111.6489    3.1186 C.3     1  UNL1        0.0000
     98 C          64.3987  111.2324    2.1785 C.3     1  UNL1        0.0000
     99 C          63.8692  110.5212    0.9452 C.3     1  UNL1        0.0000
    100 C          62.6898  111.1717    0.2265 C.3     1  UNL1        0.0000
    101 O          62.0951  112.2743    0.9283 O.3     1  UNL1        0.0000
    102 C          62.5173  112.6663    2.2290 C.3     1  UNL1        0.0000
    103 O          64.8966  106.5015    4.7887 O.3     1  UNL1        0.0000
    104 O          64.9706  108.0819    7.0335 O.3     1  UNL1        0.0000
    105 O          64.2145  110.6012    6.2883 O.3     1  UNL1        0.0000
    106 O          62.4474  110.5765    3.4880 O.3     1  UNL1        0.0000
    107 C          63.2169  114.0402    2.1644 C.3     1  UNL1        0.0000
    108 O          65.3108  110.4239    2.8576 O.3     1  UNL1        0.0000
    109 O          63.4985  109.2211    1.3491 O.3     1  UNL1        0.0000
    110 O          63.0535  111.6889   -1.0587 O.3     1  UNL1        0.0000
    111 C          64.8741  110.9986   -3.8911 C.3     1  UNL1        0.0000
    112 O          60.3188  111.1106   -2.3731 O.3     1  UNL1        0.0000
    113 O          60.1723  109.1753   -4.2799 O.3     1  UNL1        0.0000
    114 O          62.2701  107.7295   -5.0522 O.3     1  UNL1        0.0000
    115 C          62.6463  104.9538   -6.5430 C.3     1  UNL1        0.0000
    116 O          61.8100  105.8583   -7.2435 O.3     1  UNL1        0.0000
    117 O          64.4285  112.2927   -4.2573 O.3     1  UNL1        0.0000
    118 O          60.3127  105.8470   -5.0244 O.3     1  UNL1        0.0000
    119 O          60.1267  103.7555   -3.7040 O.3     1  UNL1        0.0000
    120 O          62.9051  102.4965   -2.9785 O.3     1  UNL1        0.0000
    121 C          63.6826   99.9164   -1.4681 C.3     1  UNL1        0.0000
    122 O          64.5632   98.7878   -1.6268 O.3     1  UNL1        0.0000
    123 O          62.6337  104.4365   -0.5166 O.3     1  UNL1        0.0000
    124 O          62.7577  101.3876    1.2064 O.3     1  UNL1        0.0000
    125 O          65.2963  101.9883    1.9641 O.3     1  UNL1        0.0000
    126 C          60.9224  107.8166    5.1500 C.3     1  UNL1        0.0000
    127 O          60.6291  106.5018    4.7167 O.3     1  UNL1        0.0000
    128 C          64.7672  102.2310    5.4254 C.3     1  UNL1        0.0000
    129 O          64.9746  100.8549    5.1638 O.3     1  UNL1        0.0000
    130 O          64.1069  114.1476    1.0663 O.3     1  UNL1        0.0000
    131 O          67.4727  104.1160    2.2350 O.3     1  UNL1        0.0000
    132 O          67.1630  106.0267    4.0144 O.3     1  UNL1        0.0000
    133 C          64.4007   96.8729    1.2319 C.ar    1  UNL1        0.0000
    134 N          64.5666   95.6805    0.8267 N.ar    1  UNL1        0.0000
    135 C          64.6777   95.4522   -0.4129 C.ar    1  UNL1        0.0000
    136 N          64.6301   96.4488   -1.2220 N.ar    1  UNL1        0.0000
    137 C          64.4672   97.6540   -0.8096 C.ar    1  UNL1        0.0000
    138 N          64.3456   97.8515    0.4383 N.ar    1  UNL1        0.0000
    139 Cl         64.2595   97.1722    2.9301 Cl      1  UNL1        0.0000
    140 H          65.1165   87.2099    4.7484 H       1  UNL1        0.0000
    141 H          67.7669   88.0843    5.8974 H       1  UNL1        0.0000
    142 H          67.6831   86.8755    3.0840 H       1  UNL1        0.0000
    143 H          68.8953   89.5288    4.1122 H       1  UNL1        0.0000
    144 H          66.7997   90.4185    4.3303 H       1  UNL1        0.0000
    145 H          64.5806   90.2663    2.3349 H       1  UNL1        0.0000
    146 H          64.4355   88.8293    0.4587 H       1  UNL1        0.0000
    147 H          66.3094   88.9246   -1.3976 H       1  UNL1        0.0000
    148 H          65.5418   91.3735   -2.0629 H       1  UNL1        0.0000
    149 H          63.5328   91.1693    0.1820 H       1  UNL1        0.0000
    150 H          66.1636   85.4452    4.0701 H       1  UNL1        0.0000
    151 H          67.8356   82.6276    5.6613 H       1  UNL1        0.0000
    152 H          66.1307   83.0157    3.1249 H       1  UNL1        0.0000
    153 H          65.0304   82.2854    5.8993 H       1  UNL1        0.0000
    154 H          66.3316   84.0038    6.7960 H       1  UNL1        0.0000
    155 H          63.8380   80.1722    3.0970 H       1  UNL1        0.0000
    156 H          66.2297   79.4975    2.9471 H       1  UNL1        0.0000
    157 H          67.4807   81.0235   -0.0781 H       1  UNL1        0.0000
    158 H          65.5355   79.4139   -0.7682 H       1  UNL1        0.0000
    159 H          64.5680   78.7041    1.2654 H       1  UNL1        0.0000
    160 H          63.7100   83.8052   -1.4518 H       1  UNL1        0.0000
    161 H          63.2159   81.4630   -3.3883 H       1  UNL1        0.0000
    162 H          65.1233   80.4425   -2.4628 H       1  UNL1        0.0000
    163 H          66.5183   83.6613   -3.8055 H       1  UNL1        0.0000
    164 H          63.8766   83.9137   -4.5341 H       1  UNL1        0.0000
    165 H          64.4358   88.1437   -1.6130 H       1  UNL1        0.0000
    166 H          62.1532   88.7428   -3.5115 H       1  UNL1        0.0000
    167 H          62.9160   86.1826   -2.0417 H       1  UNL1        0.0000
    168 H          63.8380   86.0652   -4.8867 H       1  UNL1        0.0000
    169 H          65.8660   89.1042   -3.4855 H       1  UNL1        0.0000
    170 H          67.1471   88.4814    1.1607 H       1  UNL1        0.0000
    171 H          67.7959   90.3907   -1.2844 H       1  UNL1        0.0000
    172 H          65.2434   89.4751   -5.6748 H       1  UNL1        0.0000
    173 H          63.9613   90.3289   -4.7300 H       1  UNL1        0.0000
    174 H          61.7684   89.2659   -1.3777 H       1  UNL1        0.0000
    175 H          61.3956   85.4474   -3.2577 H       1  UNL1        0.0000
    176 H          64.7437   81.3791   -4.8577 H       1  UNL1        0.0000
    177 H          65.6607   82.6152   -5.7783 H       1  UNL1        0.0000
    178 H          61.5538   83.1459   -2.1791 H       1  UNL1        0.0000
    179 H          62.6161   80.4946   -1.3384 H       1  UNL1        0.0000
    180 H          67.0273   78.3048    1.2990 H       1  UNL1        0.0000
    181 H          67.9772   78.6867   -0.1771 H       1  UNL1        0.0000
    182 H          68.4923   79.8349    2.3761 H       1  UNL1        0.0000
    183 H          67.5539   81.7656   -4.6108 H       1  UNL1        0.0000
    184 H          62.9807   80.8913    0.4656 H       1  UNL1        0.0000
    185 H          63.9295   82.3882    2.8692 H       1  UNL1        0.0000
    186 H          69.8358   82.8287    4.1665 H       1  UNL1        0.0000
    187 H          68.7862   82.5741    2.7263 H       1  UNL1        0.0000
    188 H          69.8749   80.7056    3.6864 H       1  UNL1        0.0000
    189 H          63.5856   83.9818    5.0230 H       1  UNL1        0.0000
    190 H          65.0226   85.8660    6.7194 H       1  UNL1        0.0000
    191 H          63.3287   93.0749   -1.3833 H       1  UNL1        0.0000
    192 H          63.3811   93.4596    0.3651 H       1  UNL1        0.0000
    193 H          64.3336   89.2527    5.8945 H       1  UNL1        0.0000
    194 H          66.0259   89.6374    6.3995 H       1  UNL1        0.0000
    195 H          64.9030   88.4386    7.9695 H       1  UNL1        0.0000
    196 H          63.8676   87.8401   -6.0964 H       1  UNL1        0.0000
    197 H          69.9056   87.0901    3.3214 H       1  UNL1        0.0000
    198 H          68.5656   89.8220    1.7344 H       1  UNL1        0.0000
    199 H          63.5275  102.5086    3.7128 H       1  UNL1        0.0000
    200 H          66.3873  102.2714    3.5836 H       1  UNL1        0.0000
    201 H          65.5641  104.8598    2.1990 H       1  UNL1        0.0000
    202 H          67.0882  104.1730    4.8364 H       1  UNL1        0.0000
    203 H          65.2359  104.9134    6.0410 H       1  UNL1        0.0000
    204 H          63.0737  106.2288    5.7626 H       1  UNL1        0.0000
    205 H          62.9986  108.3348    6.9041 H       1  UNL1        0.0000
    206 H          64.8154  109.4187    4.7408 H       1  UNL1        0.0000
    207 H          61.8997  110.2157    5.4114 H       1  UNL1        0.0000
    208 H          61.5382  108.4693    3.2508 H       1  UNL1        0.0000
    209 H          65.3276  103.3916    0.4041 H       1  UNL1        0.0000
    210 H          65.1766  101.2360   -2.1910 H       1  UNL1        0.0000
    211 H          64.3833  103.4233   -1.9122 H       1  UNL1        0.0000
    212 H          61.6923  102.6321   -0.6899 H       1  UNL1        0.0000
    213 H          63.0117  103.3646    1.5666 H       1  UNL1        0.0000
    214 H          61.2466  104.5318   -2.2521 H       1  UNL1        0.0000
    215 H          62.1115  103.0529   -4.6857 H       1  UNL1        0.0000
    216 H          64.1757  105.9393   -5.4488 H       1  UNL1        0.0000
    217 H          63.1042  106.7258   -3.4422 H       1  UNL1        0.0000
    218 H          60.6739  106.5448   -3.1591 H       1  UNL1        0.0000
    219 H          61.3466  109.3936   -1.8918 H       1  UNL1        0.0000
    220 H          61.3461  110.7599   -4.6685 H       1  UNL1        0.0000
    221 H          63.0486  109.5734   -5.3351 H       1  UNL1        0.0000
    222 H          64.5676  109.9528   -2.0517 H       1  UNL1        0.0000
    223 H          62.6022  111.9141   -2.9887 H       1  UNL1        0.0000
    224 H          63.6332  112.1334    4.0507 H       1  UNL1        0.0000
    225 H          65.0007  112.1248    1.8981 H       1  UNL1        0.0000
    226 H          64.7295  110.3837    0.2483 H       1  UNL1        0.0000
    227 H          61.8660  110.4337    0.0774 H       1  UNL1        0.0000
    228 H          61.5707  112.8813    2.7975 H       1  UNL1        0.0000
    229 H          64.9171  108.7618    7.7210 H       1  UNL1        0.0000
    230 H          65.1584  110.7943    6.2849 H       1  UNL1        0.0000
    231 H          62.4884  114.8765    2.0618 H       1  UNL1        0.0000
    232 H          63.8165  114.2403    3.0830 H       1  UNL1        0.0000
    233 H          65.4688  110.8413    3.7299 H       1  UNL1        0.0000
    234 H          64.1068  108.9172    2.0328 H       1  UNL1        0.0000
    235 H          65.8854  111.1343   -3.4423 H       1  UNL1        0.0000
    236 H          65.0231  110.4472   -4.8436 H       1  UNL1        0.0000
    237 H          59.5439  110.6092   -2.6534 H       1  UNL1        0.0000
    238 H          60.2731  108.4933   -4.9456 H       1  UNL1        0.0000
    239 H          63.4895  104.7099   -7.2382 H       1  UNL1        0.0000
    240 H          62.0511  104.0191   -6.4576 H       1  UNL1        0.0000
    241 H          61.7766  105.5904   -8.1757 H       1  UNL1        0.0000
    242 H          63.5692  112.2588   -4.6839 H       1  UNL1        0.0000
    243 H          60.6746  106.3708   -5.7394 H       1  UNL1        0.0000
    244 H          59.4392  104.3920   -3.9129 H       1  UNL1        0.0000
    245 H          63.0079   99.7470   -0.6067 H       1  UNL1        0.0000
    246 H          63.0237   99.9219   -2.3678 H       1  UNL1        0.0000
    247 H          61.9522  104.6939    0.1095 H       1  UNL1        0.0000
    248 H          63.4655  100.8483    1.5764 H       1  UNL1        0.0000
    249 H          59.9985  108.4246    5.0773 H       1  UNL1        0.0000
    250 H          61.1693  107.7414    6.2319 H       1  UNL1        0.0000
    251 H          60.0711  106.0484    5.3567 H       1  UNL1        0.0000
    252 H          65.6894  102.5921    5.9248 H       1  UNL1        0.0000
    253 H          63.9301  102.2983    6.1554 H       1  UNL1        0.0000
    254 H          65.2016  100.3885    5.9750 H       1  UNL1        0.0000
    255 H          64.8873  114.6489    1.3226 H       1  UNL1        0.0000
    256 H          67.8571  104.9975    2.2777 H       1  UNL1        0.0000
    257 H          66.8508  106.6938    4.6314 H       1  UNL1        0.0000
@<TRIPOS>BOND
     1     1     2     1
     2     1     6     1
     3     1    62     1
     4     1   140     1
     5     2     3     1
     6     2    59     1
     7     2   141     1
     8     3     4     1
     9     3    65     1
    10     3   142     1
    11     4     5     1
    12     4    66     1
    13     4   143     1
    14     5     6     1
    15     5    37     1
    16     5   144     1
    17     7     8     1
    18     7    12     1
    19     7    37     1
    20     7   145     1
    21     8     9     1
    22     8    38     1
    23     8   146     1
    24     9    10     1
    25     9    39     1
    26     9   147     1
    27    10    11     1
    28    10    40     1
    29    10   148     1
    30    11    12     1
    31    11    60     1
    32    11   149     1
    33    13    14     1
    34    13    18     1
    35    13    59     1
    36    13   150     1
    37    14    15     1
    38    15    16     1
    39    15    55     1
    40    15   151     1
    41    16    17     1
    42    16    54     1
    43    16   152     1
    44    17    18     1
    45    17    57     1
    46    17   153     1
    47    18    58     1
    48    18   154     1
    49    19    20     1
    50    19    24     1
    51    19    53     1
    52    19   155     1
    53    20    21     1
    54    20    54     1
    55    20   156     1
    56    21    22     1
    57    22    23     1
    58    22    49     1
    59    22   157     1
    60    23    24     1
    61    23    48     1
    62    23   158     1
    63    24    52     1
    64    24   159     1
    65    25    26     1
    66    25    30     1
    67    25    46     1
    68    25   160     1
    69    26    27     1
    70    26    47     1
    71    26   161     1
    72    27    28     1
    73    27    48     1
    74    27   162     1
    75    28    29     1
    76    29    30     1
    77    29    45     1
    78    29   163     1
    79    30    44     1
    80    30   164     1
    81    31    32     1
    82    31    36     1
    83    31    40     1
    84    31   165     1
    85    32    33     1
    86    32    42     1
    87    32   166     1
    88    33    34     1
    89    33    43     1
    90    33   167     1
    91    34    35     1
    92    34    44     1
    93    34   168     1
    94    35    36     1
    95    36    41     1
    96    36   169     1
    97    38   170     1
    98    39   171     1
    99    41    64     1
   100    41   172     1
   101    41   173     1
   102    42   174     1
   103    43   175     1
   104    45    51     1
   105    45   176     1
   106    45   177     1
   107    46   178     1
   108    47   179     1
   109    49    50     1
   110    49   180     1
   111    49   181     1
   112    50   182     1
   113    51   183     1
   114    52   184     1
   115    53   185     1
   116    55    56     1
   117    55   186     1
   118    55   187     1
   119    56   188     1
   120    57   189     1
   121    58   190     1
   122    60    61     1
   123    60   191     1
   124    60   192     1
   125    61   135     1
   126    62    63     1
   127    62   193     1
   128    62   194     1
   129    63   195     1
   130    64   196     1
   131    65   197     1
   132    66   198     1
   133    67    68     1
   134    67    72     1
   135    67   128     1
   136    67   199     1
   137    68    69     1
   138    68   125     1
   139    68   200     1
   140    69    70     1
   141    69   131     1
   142    69   201     1
   143    70    71     1
   144    70   132     1
   145    70   202     1
   146    71    72     1
   147    71   103     1
   148    71   203     1
   149    73    74     1
   150    73    78     1
   151    73   103     1
   152    73   204     1
   153    74    75     1
   154    74   104     1
   155    74   205     1
   156    75    76     1
   157    75   105     1
   158    75   206     1
   159    76    77     1
   160    76   106     1
   161    76   207     1
   162    77    78     1
   163    77   126     1
   164    77   208     1
   165    79    80     1
   166    79    84     1
   167    79   125     1
   168    79   209     1
   169    80    81     1
   170    81    82     1
   171    81   121     1
   172    81   210     1
   173    82    83     1
   174    82   120     1
   175    82   211     1
   176    83    84     1
   177    83   123     1
   178    83   212     1
   179    84   124     1
   180    84   213     1
   181    85    86     1
   182    85    90     1
   183    85   119     1
   184    85   214     1
   185    86    87     1
   186    86   120     1
   187    86   215     1
   188    87    88     1
   189    88    89     1
   190    88   115     1
   191    88   216     1
   192    89    90     1
   193    89   114     1
   194    89   217     1
   195    90   118     1
   196    90   218     1
   197    91    92     1
   198    91    96     1
   199    91   112     1
   200    91   219     1
   201    92    93     1
   202    92   113     1
   203    92   220     1
   204    93    94     1
   205    93   114     1
   206    93   221     1
   207    94    95     1
   208    95    96     1
   209    95   111     1
   210    95   222     1
   211    96   110     1
   212    96   223     1
   213    97    98     1
   214    97   102     1
   215    97   106     1
   216    97   224     1
   217    98    99     1
   218    98   108     1
   219    98   225     1
   220    99   100     1
   221    99   109     1
   222    99   226     1
   223   100   101     1
   224   100   110     1
   225   100   227     1
   226   101   102     1
   227   102   107     1
   228   102   228     1
   229   104   229     1
   230   105   230     1
   231   107   130     1
   232   107   231     1
   233   107   232     1
   234   108   233     1
   235   109   234     1
   236   111   117     1
   237   111   235     1
   238   111   236     1
   239   112   237     1
   240   113   238     1
   241   115   116     1
   242   115   239     1
   243   115   240     1
   244   116   241     1
   245   117   242     1
   246   118   243     1
   247   119   244     1
   248   121   122     1
   249   121   245     1
   250   121   246     1
   251   122   137     1
   252   123   247     1
   253   124   248     1
   254   126   127     1
   255   126   249     1
   256   126   250     1
   257   127   251     1
   258   128   129     1
   259   128   252     1
   260   128   253     1
   261   129   254     1
   262   130   255     1
   263   131   256     1
   264   132   257     1
   265   133   134     1
   266   133   138     2
   267   133   139     1
   268   134   135     2
   269   135   136     1
   270   136   137     2
   271   137   138     1
