@<TRIPOS>MOLECULE
generated by VMD
257  271    1    0    0
SMALL
NO_CHARGES
****
Energy = 0

@<TRIPOS>ATOM
      1 C         149.8479   62.1923    4.9021 C.3     1  UNL1        0.0000
      2 C         151.3597   62.2331    5.1463 C.3     1  UNL1        0.0000
      3 C         152.1261   61.8499    3.8962 C.3     1  UNL1        0.0000
      4 C         151.6625   60.4645    3.4611 C.3     1  UNL1        0.0000
      5 C         150.1444   60.3022    3.4982 C.3     1  UNL1        0.0000
      6 O         149.5072   61.5380    3.7059 O.3     1  UNL1        0.0000
      7 C         148.5820   60.1861    1.6152 C.3     1  UNL1        0.0000
      8 C         149.0320   61.2108    0.5894 C.3     1  UNL1        0.0000
      9 C         149.3691   60.5227   -0.7186 C.3     1  UNL1        0.0000
     10 C         148.0638   59.9719   -1.3015 C.3     1  UNL1        0.0000
     11 C         147.2245   59.3165   -0.1609 C.3     1  UNL1        0.0000
     12 O         147.9983   59.0349    0.9890 O.3     1  UNL1        0.0000
     13 C         151.7203   64.6042    4.9696 C.3     1  UNL1        0.0000
     14 O         153.0447   64.8775    4.5518 O.3     1  UNL1        0.0000
     15 C         153.4276   66.2319    4.6009 C.3     1  UNL1        0.0000
     16 C         152.2810   67.1271    4.1164 C.3     1  UNL1        0.0000
     17 C         151.1429   67.0262    5.1346 C.3     1  UNL1        0.0000
     18 C         151.1667   65.6931    5.8580 C.3     1  UNL1        0.0000
     19 C         151.3361   69.5990    2.3217 C.3     1  UNL1        0.0000
     20 C         152.6817   69.0955    2.7835 C.3     1  UNL1        0.0000
     21 O         153.2882   68.2667    1.8248 O.3     1  UNL1        0.0000
     22 C         153.5875   68.9157    0.6179 C.3     1  UNL1        0.0000
     23 C         152.3614   69.5924   -0.0043 C.3     1  UNL1        0.0000
     24 C         151.5600   70.3761    1.0350 C.3     1  UNL1        0.0000
     25 C         149.3066   67.3867   -2.4550 C.3     1  UNL1        0.0000
     26 C         149.9229   68.7672   -2.4014 C.3     1  UNL1        0.0000
     27 C         151.3850   68.6795   -2.0064 C.3     1  UNL1        0.0000
     28 O         151.9616   67.4522   -2.4179 O.3     1  UNL1        0.0000
     29 C         151.4704   66.9435   -3.6309 C.3     1  UNL1        0.0000
     30 C         149.9792   66.5482   -3.5407 C.3     1  UNL1        0.0000
     31 C         147.8763   62.1468   -2.4240 C.3     1  UNL1        0.0000
     32 C         146.8332   63.2089   -2.7050 C.3     1  UNL1        0.0000
     33 C         147.5572   64.5117   -3.0206 C.3     1  UNL1        0.0000
     34 C         148.8422   64.4205   -3.8379 C.3     1  UNL1        0.0000
     35 O         149.4734   63.1443   -3.9317 O.3     1  UNL1        0.0000
     36 C         148.7065   61.9950   -3.6899 C.3     1  UNL1        0.0000
     37 O         149.7215   59.6800    2.2892 O.3     1  UNL1        0.0000
     38 O         150.1736   61.9278    0.9942 O.3     1  UNL1        0.0000
     39 O         150.3120   59.5027   -0.4750 O.3     1  UNL1        0.0000
     40 O         147.2660   60.9638   -1.9497 O.3     1  UNL1        0.0000
     41 C         148.0108   61.5160   -4.9590 C.3     1  UNL1        0.0000
     42 O         146.0438   63.3758   -1.5492 O.3     1  UNL1        0.0000
     43 O         146.6603   65.3777   -3.6840 O.3     1  UNL1        0.0000
     44 O         149.8963   65.1725   -3.2377 O.3     1  UNL1        0.0000
     45 C         151.8277   67.8356   -4.8180 C.3     1  UNL1        0.0000
     46 O         147.9347   67.5661   -2.7032 O.3     1  UNL1        0.0000
     47 O         149.1705   69.5523   -1.5062 O.3     1  UNL1        0.0000
     48 O         151.5066   68.6362   -0.5894 O.3     1  UNL1        0.0000
     49 C         154.7799   69.8491    0.7986 C.3     1  UNL1        0.0000
     50 O         155.7513   69.2008    1.6001 O.3     1  UNL1        0.0000
     51 O         153.2002   68.1775   -4.7730 O.3     1  UNL1        0.0000
     52 O         150.3055   70.7081    0.4922 O.3     1  UNL1        0.0000
     53 O         150.4416   68.5473    2.0577 O.3     1  UNL1        0.0000
     54 O         152.6729   68.4707    4.0488 O.3     1  UNL1        0.0000
     55 C         154.7331   66.3343    3.8163 C.3     1  UNL1        0.0000
     56 O         155.3724   67.5817    4.0099 O.3     1  UNL1        0.0000
     57 O         149.9100   67.1745    4.4717 O.3     1  UNL1        0.0000
     58 O         149.8585   65.3541    6.2549 O.3     1  UNL1        0.0000
     59 O         151.7795   63.4283    5.7542 O.3     1  UNL1        0.0000
     60 C         146.2472   58.1463   -0.4973 C.3     1  UNL1        0.0000
     61 O         146.7946   56.8520   -0.7536 O.3     1  UNL1        0.0000
     62 C         149.0716   61.6500    6.0956 C.3     1  UNL1        0.0000
     63 O         149.2670   62.5111    7.2028 O.3     1  UNL1        0.0000
     64 O         147.3921   62.5799   -5.6502 O.3     1  UNL1        0.0000
     65 O         153.5100   61.7932    4.1453 O.3     1  UNL1        0.0000
     66 O         152.1785   60.2440    2.1665 O.3     1  UNL1        0.0000
     67 C         143.0366   48.8084    4.1227 C.3     1  UNL1        0.0000
     68 C         144.1254   48.5220    3.0663 C.3     1  UNL1        0.0000
     69 C         144.2121   47.0222    2.8384 C.3     1  UNL1        0.0000
     70 C         144.1964   46.3555    4.2104 C.3     1  UNL1        0.0000
     71 C         142.8857   46.5698    4.9532 C.3     1  UNL1        0.0000
     72 O         142.2107   47.6929    4.4050 O.3     1  UNL1        0.0000
     73 C         140.8165   45.3278    5.2839 C.3     1  UNL1        0.0000
     74 C         140.5480   44.1353    6.1892 C.3     1  UNL1        0.0000
     75 C         140.1403   42.8935    5.3970 C.3     1  UNL1        0.0000
     76 C         138.8088   43.1811    4.6576 C.3     1  UNL1        0.0000
     77 C         138.7929   44.6799    4.2591 C.3     1  UNL1        0.0000
     78 O         140.1056   45.1503    4.0757 O.3     1  UNL1        0.0000
     79 C         143.5372   49.1538    0.7242 C.3     1  UNL1        0.0000
     80 O         144.2271   50.0290   -0.1703 O.3     1  UNL1        0.0000
     81 C         143.5931   50.3817   -1.3930 C.3     1  UNL1        0.0000
     82 C         142.3840   49.4429   -1.7541 C.3     1  UNL1        0.0000
     83 C         141.4129   49.3962   -0.5701 C.3     1  UNL1        0.0000
     84 C         142.0928   49.5681    0.7853 C.3     1  UNL1        0.0000
     85 C         139.5673   48.5900   -3.3560 C.3     1  UNL1        0.0000
     86 C         140.9850   48.9348   -3.7984 C.3     1  UNL1        0.0000
     87 O         141.7177   47.8446   -4.3348 O.3     1  UNL1        0.0000
     88 C         140.9707   46.9693   -5.1942 C.3     1  UNL1        0.0000
     89 C         139.9030   46.2371   -4.3446 C.3     1  UNL1        0.0000
     90 C         138.9282   47.3041   -3.9175 C.3     1  UNL1        0.0000
     91 C         137.5503   43.1183   -2.5602 C.3     1  UNL1        0.0000
     92 C         137.6634   43.5608   -4.0234 C.3     1  UNL1        0.0000
     93 C         139.0794   43.8833   -4.4805 C.3     1  UNL1        0.0000
     94 O         139.9986   43.5567   -3.4665 O.3     1  UNL1        0.0000
     95 C         139.8745   42.2429   -2.9298 C.3     1  UNL1        0.0000
     96 C         138.4923   41.9407   -2.3019 C.3     1  UNL1        0.0000
     97 C         138.7537   41.1800    3.1186 C.3     1  UNL1        0.0000
     98 C         139.9485   41.1549    2.1785 C.3     1  UNL1        0.0000
     99 C         139.7179   42.0112    0.9452 C.3     1  UNL1        0.0000
    100 C         138.3819   41.8404    0.2265 C.3     1  UNL1        0.0000
    101 O         137.4231   41.0341    0.9283 O.3     1  UNL1        0.0000
    102 C         137.6714   40.5141    2.2290 C.3     1  UNL1        0.0000
    103 O         142.1527   45.3706    4.7887 O.3     1  UNL1        0.0000
    104 O         141.6398   43.8738    7.0335 O.3     1  UNL1        0.0000
    105 O         140.0095   41.8097    6.2883 O.3     1  UNL1        0.0000
    106 O         138.3756   42.4830    3.4880 O.3     1  UNL1        0.0000
    107 C         137.8162   38.9792    2.1644 C.3     1  UNL1        0.0000
    108 O         141.0941   41.5710    2.8576 O.3     1  UNL1        0.0000
    109 O         139.8517   43.3564    1.3491 O.3     1  UNL1        0.0000
    110 O         138.5297   41.2256   -1.0587 O.3     1  UNL1        0.0000
    111 C         140.4765   41.1974   -3.8911 C.3     1  UNL1        0.0000
    112 O         136.1998   42.7698   -2.3731 O.3     1  UNL1        0.0000
    113 O         136.7758   44.6233   -4.2799 O.3     1  UNL1        0.0000
    114 O         139.2585   45.1955   -5.0522 O.3     1  UNL1        0.0000
    115 C         140.6299   47.6378   -6.5430 C.3     1  UNL1        0.0000
    116 O         139.5194   47.1047   -7.2435 O.3     1  UNL1        0.0000
    117 O         139.5859   40.1581   -4.2573 O.3     1  UNL1        0.0000
    118 O         138.1314   47.6662   -5.0244 O.3     1  UNL1        0.0000
    119 O         138.7282   49.6793   -3.7040 O.3     1  UNL1        0.0000
    120 O         141.7750   49.8274   -2.9785 O.3     1  UNL1        0.0000
    121 C         143.4475   51.9403   -1.4681 C.3     1  UNL1        0.0000
    122 O         144.6817   52.6655   -1.6268 O.3     1  UNL1        0.0000
    123 O         140.8086   48.1235   -0.5166 O.3     1  UNL1        0.0000
    124 O         142.0461   50.9127    1.2064 O.3     1  UNL1        0.0000
    125 O         144.1854   49.4198    1.9641 O.3     1  UNL1        0.0000
    126 C         137.9733   45.6104    5.1500 C.3     1  UNL1        0.0000
    127 O         138.1846   46.9409    4.7167 O.3     1  UNL1        0.0000
    128 C         143.6041   49.3889    5.4254 C.3     1  UNL1        0.0000
    129 O         144.3034   50.5921    5.1638 O.3     1  UNL1        0.0000
    130 O         138.6042   38.5518    1.0663 O.3     1  UNL1        0.0000
    131 O         145.4259   46.6405    2.2350 O.3     1  UNL1        0.0000
    132 O         144.4347   44.9779    4.0144 O.3     1  UNL1        0.0000
    133 C         145.2353   54.5058    1.2319 C.ar    1  UNL1        0.0000
    134 N         145.8285   55.5534    0.8267 N.ar    1  UNL1        0.0000
    135 C         146.0158   55.7248   -0.4129 C.ar    1  UNL1        0.0000
    136 N         145.6047   54.8157   -1.2220 N.ar    1  UNL1        0.0000
    137 C         145.0097   53.7550   -0.8096 C.ar    1  UNL1        0.0000
    138 N         144.8239   53.6161    0.4383 N.ar    1  UNL1        0.0000
    139 Cl        144.9939   54.2794    2.9301 Cl      1  UNL1        0.0000
    140 H         149.4573   63.2271    4.7484 H       1  UNL1        0.0000
    141 H         151.5999   61.4386    5.8974 H       1  UNL1        0.0000
    142 H         151.9669   62.5934    3.0840 H       1  UNL1        0.0000
    143 H         152.1174   59.6802    4.1122 H       1  UNL1        0.0000
    144 H         149.8414   59.6242    4.3303 H       1  UNL1        0.0000
    145 H         147.8342   60.5825    2.3349 H       1  UNL1        0.0000
    146 H         148.2282   61.9720    0.4587 H       1  UNL1        0.0000
    147 H         149.9354   61.1937   -1.3976 H       1  UNL1        0.0000
    148 H         148.3204   59.1992   -2.0629 H       1  UNL1        0.0000
    149 H         146.5276   60.1285    0.1820 H       1  UNL1        0.0000
    150 H         151.0805   64.4825    4.0701 H       1  UNL1        0.0000
    151 H         153.6721   66.4869    5.6613 H       1  UNL1        0.0000
    152 H         151.9440   66.7536    3.1249 H       1  UNL1        0.0000
    153 H         151.1897   67.8376    5.8993 H       1  UNL1        0.0000
    154 H         151.7671   65.7609    6.7960 H       1  UNL1        0.0000
    155 H         150.8588   70.2414    3.0970 H       1  UNL1        0.0000
    156 H         153.3309   69.9884    2.9471 H       1  UNL1        0.0000
    157 H         153.9325   68.1091   -0.0781 H       1  UNL1        0.0000
    158 H         152.7163   70.3216   -0.7682 H       1  UNL1        0.0000
    159 H         152.0779   71.3377    1.2654 H       1  UNL1        0.0000
    160 H         149.4026   66.9104   -1.4518 H       1  UNL1        0.0000
    161 H         149.8053   69.2700   -3.3883 H       1  UNL1        0.0000
    162 H         151.9544   69.5169   -2.4628 H       1  UNL1        0.0000
    163 H         152.0668   66.0107   -3.8055 H       1  UNL1        0.0000
    164 H         149.5176   66.7483   -4.5341 H       1  UNL1        0.0000
    165 H         148.4808   62.6093   -1.6130 H       1  UNL1        0.0000
    166 H         146.1378   62.8924   -3.5115 H       1  UNL1        0.0000
    167 H         147.7894   64.9921   -2.0417 H       1  UNL1        0.0000
    168 H         148.6898   64.7620   -4.8867 H       1  UNL1        0.0000
    169 H         149.4570   61.1898   -3.4855 H       1  UNL1        0.0000
    170 H         150.8774   61.2975    1.1607 H       1  UNL1        0.0000
    171 H         150.7780   59.2834   -1.2844 H       1  UNL1        0.0000
    172 H         148.7417   61.0741   -5.6748 H       1  UNL1        0.0000
    173 H         147.2352   60.7522   -4.7300 H       1  UNL1        0.0000
    174 H         145.5875   62.5477   -1.3777 H       1  UNL1        0.0000
    175 H         146.6463   66.2353   -3.2577 H       1  UNL1        0.0000
    176 H         151.2567   68.7858   -4.8577 H       1  UNL1        0.0000
    177 H         151.6544   67.2990   -5.7783 H       1  UNL1        0.0000
    178 H         147.6404   68.3171   -2.1791 H       1  UNL1        0.0000
    179 H         149.6040   70.3912   -1.3384 H       1  UNL1        0.0000
    180 H         154.5116   70.8039    1.2990 H       1  UNL1        0.0000
    181 H         155.2542   70.0991   -0.1771 H       1  UNL1        0.0000
    182 H         155.3105   68.8419    2.3761 H       1  UNL1        0.0000
    183 H         153.7274   67.3922   -4.6108 H       1  UNL1        0.0000
    184 H         149.7970   69.8882    0.4656 H       1  UNL1        0.0000
    185 H         150.1283   68.1471    2.8692 H       1  UNL1        0.0000
    186 H         155.4579   65.5639    4.1665 H       1  UNL1        0.0000
    187 H         154.5756   66.1869    2.7263 H       1  UNL1        0.0000
    188 H         156.2756   67.5235    3.6864 H       1  UNL1        0.0000
    189 H         149.2220   66.7920    5.0230 H       1  UNL1        0.0000
    190 H         149.8646   64.5112    6.7194 H       1  UNL1        0.0000
    191 H         145.6364   58.4318   -1.3833 H       1  UNL1        0.0000
    192 H         145.5435   58.0548    0.3651 H       1  UNL1        0.0000
    193 H         147.9775   61.6159    5.8945 H       1  UNL1        0.0000
    194 H         149.4095   60.6352    6.3995 H       1  UNL1        0.0000
    195 H         148.8066   62.1632    7.9695 H       1  UNL1        0.0000
    196 H         148.0642   63.1008   -6.0964 H       1  UNL1        0.0000
    197 H         153.9543   61.5758    3.3214 H       1  UNL1        0.0000
    198 H         151.7029   59.5289    1.7344 H       1  UNL1        0.0000
    199 H         142.3492   49.5871    3.7128 H       1  UNL1        0.0000
    200 H         145.0956   48.7551    3.5836 H       1  UNL1        0.0000
    201 H         143.3775   46.6513    2.1990 H       1  UNL1        0.0000
    202 H         145.0474   46.7290    4.8364 H       1  UNL1        0.0000
    203 H         143.0526   46.7223    6.0410 H       1  UNL1        0.0000
    204 H         140.5581   46.2950    5.7626 H       1  UNL1        0.0000
    205 H         139.7131   44.3645    6.9041 H       1  UNL1        0.0000
    206 H         141.0035   42.6880    4.7408 H       1  UNL1        0.0000
    207 H         137.9991   43.0200    5.4114 H       1  UNL1        0.0000
    208 H         138.3057   44.7769    3.2508 H       1  UNL1        0.0000
    209 H         143.6979   48.1035    0.4041 H       1  UNL1        0.0000
    210 H         144.3510   50.1633   -2.1910 H       1  UNL1        0.0000
    211 H         142.8083   48.4216   -1.9122 H       1  UNL1        0.0000
    212 H         140.5974   50.1476   -0.6899 H       1  UNL1        0.0000
    213 H         141.5546   48.9810    1.5666 H       1  UNL1        0.0000
    214 H         139.4838   48.5454   -2.2521 H       1  UNL1        0.0000
    215 H         140.8323   49.6021   -4.6857 H       1  UNL1        0.0000
    216 H         141.6893   46.1586   -5.4488 H       1  UNL1        0.0000
    217 H         140.4034   45.8217   -3.4422 H       1  UNL1        0.0000
    218 H         138.2104   46.8844   -3.1591 H       1  UNL1        0.0000
    219 H         137.7873   43.9880   -1.8918 H       1  UNL1        0.0000
    220 H         137.2840   42.7178   -4.6685 H       1  UNL1        0.0000
    221 H         139.3037   43.1944   -5.3351 H       1  UNL1        0.0000
    222 H         140.5765   42.2825   -2.0517 H       1  UNL1        0.0000
    223 H         138.0272   41.1824   -2.9887 H       1  UNL1        0.0000
    224 H         138.9051   40.5990    4.0507 H       1  UNL1        0.0000
    225 H         140.1798   40.1036    1.8981 H       1  UNL1        0.0000
    226 H         140.5684   41.8224    0.2483 H       1  UNL1        0.0000
    227 H         137.8875   42.8298    0.0774 H       1  UNL1        0.0000
    228 H         136.7121   40.6626    2.7975 H       1  UNL1        0.0000
    229 H         141.3398   43.2613    7.7210 H       1  UNL1        0.0000
    230 H         140.8161   41.2827    6.2849 H       1  UNL1        0.0000
    231 H         136.8310   38.4697    2.0618 H       1  UNL1        0.0000
    232 H         138.3001   38.5725    3.0830 H       1  UNL1        0.0000
    233 H         141.0875   41.1248    3.7299 H       1  UNL1        0.0000
    234 H         140.5292   43.4151    2.0328 H       1  UNL1        0.0000
    235 H         141.3669   40.6990   -3.4423 H       1  UNL1        0.0000
    236 H         140.8181   41.6553   -4.8436 H       1  UNL1        0.0000
    237 H         135.6638   43.5212   -2.6534 H       1  UNL1        0.0000
    238 H         137.1206   45.2202   -4.9456 H       1  UNL1        0.0000
    239 H         141.5036   47.5543   -7.2382 H       1  UNL1        0.0000
    240 H         140.4205   48.7260   -6.4576 H       1  UNL1        0.0000
    241 H         139.5870   47.3660   -8.1757 H       1  UNL1        0.0000
    242 H         138.7994   40.5059   -4.6839 H       1  UNL1        0.0000
    243 H         138.2751   47.0459   -5.7394 H       1  UNL1        0.0000
    244 H         137.8547   49.3406   -3.9129 H       1  UNL1        0.0000
    245 H         142.8825   52.3461   -0.6067 H       1  UNL1        0.0000
    246 H         142.8328   52.1776   -2.3678 H       1  UNL1        0.0000
    247 H         140.0802   48.1350    0.1095 H       1  UNL1        0.0000
    248 H         142.9026   51.1536    1.5764 H       1  UNL1        0.0000
    249 H         136.8906   45.3852    5.0773 H       1  UNL1        0.0000
    250 H         138.2306   45.5895    6.2319 H       1  UNL1        0.0000
    251 H         137.8326   47.5678    5.3567 H       1  UNL1        0.0000
    252 H         144.3286   48.7138    5.9248 H       1  UNL1        0.0000
    253 H         142.8010   49.6344    6.1554 H       1  UNL1        0.0000
    254 H         144.6861   50.9422    5.9750 H       1  UNL1        0.0000
    255 H         139.1453   37.7985    1.3226 H       1  UNL1        0.0000
    256 H         145.4588   45.6794    2.2777 H       1  UNL1        0.0000
    257 H         143.8989   44.4725    4.6314 H       1  UNL1        0.0000
@<TRIPOS>BOND
     1     1     2     1
     2     1     6     1
     3     1    62     1
     4     1   140     1
     5     2     3     1
     6     2    59     1
     7     2   141     1
     8     3     4     1
     9     3    65     1
    10     3   142     1
    11     4     5     1
    12     4    66     1
    13     4   143     1
    14     5     6     1
    15     5    37     1
    16     5   144     1
    17     7     8     1
    18     7    12     1
    19     7    37     1
    20     7   145     1
    21     8     9     1
    22     8    38     1
    23     8   146     1
    24     9    10     1
    25     9    39     1
    26     9   147     1
    27    10    11     1
    28    10    40     1
    29    10   148     1
    30    11    12     1
    31    11    60     1
    32    11   149     1
    33    13    14     1
    34    13    18     1
    35    13    59     1
    36    13   150     1
    37    14    15     1
    38    15    16     1
    39    15    55     1
    40    15   151     1
    41    16    17     1
    42    16    54     1
    43    16   152     1
    44    17    18     1
    45    17    57     1
    46    17   153     1
    47    18    58     1
    48    18   154     1
    49    19    20     1
    50    19    24     1
    51    19    53     1
    52    19   155     1
    53    20    21     1
    54    20    54     1
    55    20   156     1
    56    21    22     1
    57    22    23     1
    58    22    49     1
    59    22   157     1
    60    23    24     1
    61    23    48     1
    62    23   158     1
    63    24    52     1
    64    24   159     1
    65    25    26     1
    66    25    30     1
    67    25    46     1
    68    25   160     1
    69    26    27     1
    70    26    47     1
    71    26   161     1
    72    27    28     1
    73    27    48     1
    74    27   162     1
    75    28    29     1
    76    29    30     1
    77    29    45     1
    78    29   163     1
    79    30    44     1
    80    30   164     1
    81    31    32     1
    82    31    36     1
    83    31    40     1
    84    31   165     1
    85    32    33     1
    86    32    42     1
    87    32   166     1
    88    33    34     1
    89    33    43     1
    90    33   167     1
    91    34    35     1
    92    34    44     1
    93    34   168     1
    94    35    36     1
    95    36    41     1
    96    36   169     1
    97    38   170     1
    98    39   171     1
    99    41    64     1
   100    41   172     1
   101    41   173     1
   102    42   174     1
   103    43   175     1
   104    45    51     1
   105    45   176     1
   106    45   177     1
   107    46   178     1
   108    47   179     1
   109    49    50     1
   110    49   180     1
   111    49   181     1
   112    50   182     1
   113    51   183     1
   114    52   184     1
   115    53   185     1
   116    55    56     1
   117    55   186     1
   118    55   187     1
   119    56   188     1
   120    57   189     1
   121    58   190     1
   122    60    61     1
   123    60   191     1
   124    60   192     1
   125    61   135     1
   126    62    63     1
   127    62   193     1
   128    62   194     1
   129    63   195     1
   130    64   196     1
   131    65   197     1
   132    66   198     1
   133    67    68     1
   134    67    72     1
   135    67   128     1
   136    67   199     1
   137    68    69     1
   138    68   125     1
   139    68   200     1
   140    69    70     1
   141    69   131     1
   142    69   201     1
   143    70    71     1
   144    70   132     1
   145    70   202     1
   146    71    72     1
   147    71   103     1
   148    71   203     1
   149    73    74     1
   150    73    78     1
   151    73   103     1
   152    73   204     1
   153    74    75     1
   154    74   104     1
   155    74   205     1
   156    75    76     1
   157    75   105     1
   158    75   206     1
   159    76    77     1
   160    76   106     1
   161    76   207     1
   162    77    78     1
   163    77   126     1
   164    77   208     1
   165    79    80     1
   166    79    84     1
   167    79   125     1
   168    79   209     1
   169    80    81     1
   170    81    82     1
   171    81   121     1
   172    81   210     1
   173    82    83     1
   174    82   120     1
   175    82   211     1
   176    83    84     1
   177    83   123     1
   178    83   212     1
   179    84   124     1
   180    84   213     1
   181    85    86     1
   182    85    90     1
   183    85   119     1
   184    85   214     1
   185    86    87     1
   186    86   120     1
   187    86   215     1
   188    87    88     1
   189    88    89     1
   190    88   115     1
   191    88   216     1
   192    89    90     1
   193    89   114     1
   194    89   217     1
   195    90   118     1
   196    90   218     1
   197    91    92     1
   198    91    96     1
   199    91   112     1
   200    91   219     1
   201    92    93     1
   202    92   113     1
   203    92   220     1
   204    93    94     1
   205    93   114     1
   206    93   221     1
   207    94    95     1
   208    95    96     1
   209    95   111     1
   210    95   222     1
   211    96   110     1
   212    96   223     1
   213    97    98     1
   214    97   102     1
   215    97   106     1
   216    97   224     1
   217    98    99     1
   218    98   108     1
   219    98   225     1
   220    99   100     1
   221    99   109     1
   222    99   226     1
   223   100   101     1
   224   100   110     1
   225   100   227     1
   226   101   102     1
   227   102   107     1
   228   102   228     1
   229   104   229     1
   230   105   230     1
   231   107   130     1
   232   107   231     1
   233   107   232     1
   234   108   233     1
   235   109   234     1
   236   111   117     1
   237   111   235     1
   238   111   236     1
   239   112   237     1
   240   113   238     1
   241   115   116     1
   242   115   239     1
   243   115   240     1
   244   116   241     1
   245   117   242     1
   246   118   243     1
   247   119   244     1
   248   121   122     1
   249   121   245     1
   250   121   246     1
   251   122   137     1
   252   123   247     1
   253   124   248     1
   254   126   127     1
   255   126   249     1
   256   126   250     1
   257   127   251     1
   258   128   129     1
   259   128   252     1
   260   128   253     1
   261   129   254     1
   262   130   255     1
   263   131   256     1
   264   132   257     1
   265   133   134     1
   266   133   138     2
   267   133   139     1
   268   134   135     2
   269   135   136     1
   270   136   137     2
   271   137   138     1
