@<TRIPOS>MOLECULE
generated by VMD
257  271    1    0    0
SMALL
NO_CHARGES
****
Energy = 0

@<TRIPOS>ATOM
      1 C         144.8164  255.5240    4.9021 C.3     1  UNL1        0.0000
      2 C         144.6089  257.0221    5.1463 C.3     1  UNL1        0.0000
      3 C         144.9051  257.8261    3.8962 C.3     1  UNL1        0.0000
      4 C         146.3332  257.5183    3.4611 C.3     1  UNL1        0.0000
      5 C         146.6621  256.0274    3.4982 C.3     1  UNL1        0.0000
      6 O         145.5042  255.2577    3.7059 O.3     1  UNL1        0.0000
      7 C         146.9500  254.4873    1.6152 C.3     1  UNL1        0.0000
      8 C         145.8819  254.8215    0.5894 C.3     1  UNL1        0.0000
      9 C         146.5286  255.2325   -0.7186 C.3     1  UNL1        0.0000
     10 C         147.2201  253.9960   -1.3015 C.3     1  UNL1        0.0000
     11 C         147.9643  253.2343   -0.1609 C.3     1  UNL1        0.0000
     12 O         148.1587  254.0344    0.9890 O.3     1  UNL1        0.0000
     13 C         142.2124  257.1186    4.9696 C.3     1  UNL1        0.0000
     14 O         141.7945  258.4048    4.5518 O.3     1  UNL1        0.0000
     15 C         140.4062  258.6357    4.6009 C.3     1  UNL1        0.0000
     16 C         139.6430  257.3972    4.1164 C.3     1  UNL1        0.0000
     17 C         139.8690  256.2772    5.1346 C.3     1  UNL1        0.0000
     18 C         141.1913  256.4481    5.8580 C.3     1  UNL1        0.0000
     19 C         137.2906  256.1851    2.3217 C.3     1  UNL1        0.0000
     20 C         137.6425  257.5781    2.7835 C.3     1  UNL1        0.0000
     21 O         138.3991  258.2724    1.8248 O.3     1  UNL1        0.0000
     22 C         137.7211  258.4982    0.6179 C.3     1  UNL1        0.0000
     23 C         137.1839  257.2049   -0.0043 C.3     1  UNL1        0.0000
     24 C         136.4935  256.3218    1.0350 C.3     1  UNL1        0.0000
     25 C         139.7134  254.4124   -2.4550 C.3     1  UNL1        0.0000
     26 C         138.2734  254.8724   -2.4014 C.3     1  UNL1        0.0000
     27 C         138.1990  256.3353   -2.0064 C.3     1  UNL1        0.0000
     28 O         139.3552  257.0439   -2.4179 O.3     1  UNL1        0.0000
     29 C         139.9151  256.6119   -3.6309 C.3     1  UNL1        0.0000
     30 C         140.4726  255.1734   -3.5407 C.3     1  UNL1        0.0000
     31 C         145.0793  253.5695   -2.4240 C.3     1  UNL1        0.0000
     32 C         144.1388  252.4154   -2.7050 C.3     1  UNL1        0.0000
     33 C         142.7641  252.9912   -3.0206 C.3     1  UNL1        0.0000
     34 C         142.7129  254.2784   -3.8379 C.3     1  UNL1        0.0000
     35 O         143.9115  255.0467   -3.9317 O.3     1  UNL1        0.0000
     36 C         145.1385  254.4113   -3.6899 C.3     1  UNL1        0.0000
     37 O         147.3273  255.6758    2.2892 O.3     1  UNL1        0.0000
     38 O         145.0433  255.8769    0.9942 O.3     1  UNL1        0.0000
     39 O         147.4383  256.2822   -0.4750 O.3     1  UNL1        0.0000
     40 O         146.3224  253.0936   -1.9497 O.3     1  UNL1        0.0000
     41 C         145.6913  253.7728   -4.9590 C.3     1  UNL1        0.0000
     42 O         144.0602  251.6124   -1.5492 O.3     1  UNL1        0.0000
     43 O         142.0024  252.0041   -3.6840 O.3     1  UNL1        0.0000
     44 O         141.8490  255.2430   -3.2377 O.3     1  UNL1        0.0000
     45 C         138.9890  256.8684   -4.8180 C.3     1  UNL1        0.0000
     46 O         139.6867  253.0290   -2.7032 O.3     1  UNL1        0.0000
     47 O         137.5761  254.0379   -1.5062 O.3     1  UNL1        0.0000
     48 O         138.2287  256.4609   -0.5894 O.3     1  UNL1        0.0000
     49 C         136.6618  259.5803    0.7986 C.3     1  UNL1        0.0000
     50 O         137.1988  260.6174    1.6001 O.3     1  UNL1        0.0000
     51 O         138.4976  258.1948   -4.7730 O.3     1  UNL1        0.0000
     52 O         136.3021  255.0384    0.4922 O.3     1  UNL1        0.0000
     53 O         138.4347  255.4123    2.0577 O.3     1  UNL1        0.0000
     54 O         138.2644  257.6384    4.0488 O.3     1  UNL1        0.0000
     55 C         140.1602  259.9219    3.8163 C.3     1  UNL1        0.0000
     56 O         138.8498  260.4195    4.0099 O.3     1  UNL1        0.0000
     57 O         139.8578  255.0355    4.4717 O.3     1  UNL1        0.0000
     58 O         141.6727  255.1854    6.2549 O.3     1  UNL1        0.0000
     59 O         143.3746  257.3073    5.7542 O.3     1  UNL1        0.0000
     60 C         149.2352  252.3922   -0.4973 C.3     1  UNL1        0.0000
     61 O         150.4611  253.0791   -0.7536 O.3     1  UNL1        0.0000
     62 C         145.4411  254.8123    6.0956 C.3     1  UNL1        0.0000
     63 O         144.5636  254.9115    7.2028 O.3     1  UNL1        0.0000
     64 O         144.7023  253.0404   -5.6502 O.3     1  UNL1        0.0000
     65 O         144.8086  259.2078    4.1453 O.3     1  UNL1        0.0000
     66 O         146.4954  258.0555    2.1665 O.3     1  UNL1        0.0000
     67 C         158.8705  250.2323    4.1227 C.3     1  UNL1        0.0000
     68 C         159.0349  251.3462    3.0663 C.3     1  UNL1        0.0000
     69 C         160.5160  251.5980    2.8384 C.3     1  UNL1        0.0000
     70 C         161.1803  251.6560    4.2104 C.3     1  UNL1        0.0000
     71 C         161.1121  250.3296    4.9532 C.3     1  UNL1        0.0000
     72 O         160.0704  249.5347    4.4050 O.3     1  UNL1        0.0000
     73 C         162.5750  248.4102    5.2839 C.3     1  UNL1        0.0000
     74 C         163.7899  248.2751    6.1892 C.3     1  UNL1        0.0000
     75 C         165.0691  248.0069    5.3970 C.3     1  UNL1        0.0000
     76 C         164.9303  246.6519    4.6576 C.3     1  UNL1        0.0000
     77 C         163.4425  246.4705    4.2591 C.3     1  UNL1        0.0000
     78 O         162.8300  247.7233    4.0757 O.3     1  UNL1        0.0000
     79 C         158.4720  250.6917    0.7242 C.3     1  UNL1        0.0000
     80 O         157.5260  251.2808   -0.1703 O.3     1  UNL1        0.0000
     81 C         157.2454  250.6117   -1.3930 C.3     1  UNL1        0.0000
     82 C         158.3120  249.5137   -1.7541 C.3     1  UNL1        0.0000
     83 C         158.4657  248.5537   -0.5701 C.3     1  UNL1        0.0000
     84 C         158.2197  249.2104    0.7853 C.3     1  UNL1        0.0000
     85 C         159.4708  246.8084   -3.3560 C.3     1  UNL1        0.0000
     86 C         158.9714  248.1793   -3.7984 C.3     1  UNL1        0.0000
     87 O         159.9741  249.0279   -4.3348 O.3     1  UNL1        0.0000
     88 C         160.9266  248.3821   -5.1942 C.3     1  UNL1        0.0000
     89 C         161.7722  247.4019   -4.3446 C.3     1  UNL1        0.0000
     90 C         160.8193  246.3152   -3.9175 C.3     1  UNL1        0.0000
     91 C         165.1317  245.4079   -2.5602 C.3     1  UNL1        0.0000
     92 C         164.6795  245.4715   -4.0234 C.3     1  UNL1        0.0000
     93 C         164.2026  246.8432   -4.4805 C.3     1  UNL1        0.0000
     94 O         164.4256  247.7929   -3.4665 O.3     1  UNL1        0.0000
     95 C         165.7451  247.8147   -2.9298 C.3     1  UNL1        0.0000
     96 C         166.1980  246.4742   -2.3019 C.3     1  UNL1        0.0000
     97 C         166.9252  246.8180    3.1186 C.3     1  UNL1        0.0000
     98 C         166.8182  248.0083    2.1785 C.3     1  UNL1        0.0000
     99 C         165.9927  247.6846    0.9452 C.3     1  UNL1        0.0000
    100 C         166.3099  246.3756    0.2265 C.3     1  UNL1        0.0000
    101 O         167.2173  245.5118    0.9283 O.3     1  UNL1        0.0000
    102 C         167.7066  245.8159    2.2290 C.3     1  UNL1        0.0000
    103 O         162.3850  249.7335    4.7887 O.3     1  UNL1        0.0000
    104 O         163.9292  249.3890    7.0335 O.3     1  UNL1        0.0000
    105 O         166.1608  247.9967    6.2883 O.3     1  UNL1        0.0000
    106 O         165.6720  246.2983    3.4880 O.3     1  UNL1        0.0000
    107 C         169.2161  246.1293    2.1644 C.3     1  UNL1        0.0000
    108 O         166.2782  249.1010    2.8576 O.3     1  UNL1        0.0000
    109 O         164.6409  247.6690    1.3491 O.3     1  UNL1        0.0000
    110 O         166.9047  246.5904   -1.0587 O.3     1  UNL1        0.0000
    111 C         166.7177  248.5284   -3.8911 C.3     1  UNL1        0.0000
    112 O         165.6272  244.1042   -2.3731 O.3     1  UNL1        0.0000
    113 O         163.7215  244.4721   -4.2799 O.3     1  UNL1        0.0000
    114 O         162.8786  246.8764   -5.0522 O.3     1  UNL1        0.0000
    115 C         160.2997  247.9696   -6.5430 C.3     1  UNL1        0.0000
    116 O         160.9523  246.9248   -7.2435 O.3     1  UNL1        0.0000
    117 O         167.8490  247.7581   -4.2573 O.3     1  UNL1        0.0000
    118 O         160.5475  245.4833   -5.0244 O.3     1  UNL1        0.0000
    119 O         158.4807  245.8541   -3.7040 O.3     1  UNL1        0.0000
    120 O         157.9971  248.8659   -2.9785 O.3     1  UNL1        0.0000
    121 C         155.7125  250.2949   -1.4681 C.3     1  UNL1        0.0000
    122 O         154.8554  251.4414   -1.6268 O.3     1  UNL1        0.0000
    123 O         159.7973  248.0936   -0.5166 O.3     1  UNL1        0.0000
    124 O         156.8885  249.0155    1.2064 O.3     1  UNL1        0.0000
    125 O         158.1360  251.3066    1.9641 O.3     1  UNL1        0.0000
    126 C         162.6081  245.5532    5.1500 C.3     1  UNL1        0.0000
    127 O         161.2624  245.6162    4.7167 O.3     1  UNL1        0.0000
    128 C         158.2309  250.7322    5.4254 C.3     1  UNL1        0.0000
    129 O         156.9579  251.2944    5.1638 O.3     1  UNL1        0.0000
    130 O         169.5539  246.9597    1.0663 O.3     1  UNL1        0.0000
    131 O         160.7613  252.8464    2.2350 O.3     1  UNL1        0.0000
    132 O         162.5233  252.0449    4.0144 O.3     1  UNL1        0.0000
    133 C         152.9652  251.7885    1.2319 C.ar    1  UNL1        0.0000
    134 N         151.8585  252.2623    0.8267 N.ar    1  UNL1        0.0000
    135 C         151.6674  252.4295   -0.4129 C.ar    1  UNL1        0.0000
    136 N         152.6164  252.1214   -1.2220 N.ar    1  UNL1        0.0000
    137 C         153.7363  251.6471   -0.8096 C.ar    1  UNL1        0.0000
    138 N         153.8948  251.4778    0.4383 N.ar    1  UNL1        0.0000
    139 Cl        153.2168  251.5735    2.9301 Cl      1  UNL1        0.0000
    140 H         143.8310  255.0215    4.7484 H       1  UNL1        0.0000
    141 H         145.3720  257.3485    5.8974 H       1  UNL1        0.0000
    142 H         144.1837  257.5857    3.0840 H       1  UNL1        0.0000
    143 H         147.0625  258.0571    4.1122 H       1  UNL1        0.0000
    144 H         147.3694  255.8012    4.3303 H       1  UNL1        0.0000
    145 H         146.6387  253.7004    2.3349 H       1  UNL1        0.0000
    146 H         145.2142  253.9385    0.4587 H       1  UNL1        0.0000
    147 H         145.7992  255.7213   -1.3976 H       1  UNL1        0.0000
    148 H         147.9598  254.3363   -2.0629 H       1  UNL1        0.0000
    149 H         147.2342  252.4519    0.1820 H       1  UNL1        0.0000
    150 H         142.4040  256.4961    4.0701 H       1  UNL1        0.0000
    151 H         140.1256  258.8505    5.6613 H       1  UNL1        0.0000
    152 H         140.0514  257.1035    3.1249 H       1  UNL1        0.0000
    153 H         139.0574  256.2342    5.8993 H       1  UNL1        0.0000
    154 H         141.0576  257.0374    6.7960 H       1  UNL1        0.0000
    155 H         136.7049  255.6398    3.0970 H       1  UNL1        0.0000
    156 H         136.6833  258.1248    2.9471 H       1  UNL1        0.0000
    157 H         138.4846  258.9302   -0.0781 H       1  UNL1        0.0000
    158 H         136.4200  257.4771   -0.7682 H       1  UNL1        0.0000
    159 H         135.4806  256.7304    1.2654 H       1  UNL1        0.0000
    160 H         140.1762  254.5604   -1.4518 H       1  UNL1        0.0000
    161 H         137.7866  254.7000   -3.3883 H       1  UNL1        0.0000
    162 H         137.3039  256.8087   -2.4628 H       1  UNL1        0.0000
    163 H         140.7763  257.3076   -3.8055 H       1  UNL1        0.0000
    164 H         140.3247  254.6926   -4.5341 H       1  UNL1        0.0000
    165 H         144.5529  254.1192   -1.6130 H       1  UNL1        0.0000
    166 H         144.5302  251.7593   -3.5115 H       1  UNL1        0.0000
    167 H         142.2609  253.1689   -2.0417 H       1  UNL1        0.0000
    168 H         142.3903  254.0892   -4.8867 H       1  UNL1        0.0000
    169 H         145.8558  255.2462   -3.4855 H       1  UNL1        0.0000
    170 H         145.5920  256.6460    1.1607 H       1  UNL1        0.0000
    171 H         147.6047  256.7696   -1.2844 H       1  UNL1        0.0000
    172 H         146.0498  254.5480   -5.6748 H       1  UNL1        0.0000
    173 H         146.5362  253.0863   -4.7300 H       1  UNL1        0.0000
    174 H         144.9336  251.2505   -1.3777 H       1  UNL1        0.0000
    175 H         141.1516  251.8955   -3.2577 H       1  UNL1        0.0000
    176 H         138.1076  256.1961   -4.8577 H       1  UNL1        0.0000
    177 H         139.5414  256.7555   -5.7783 H       1  UNL1        0.0000
    178 H         138.9728  252.6537   -2.1791 H       1  UNL1        0.0000
    179 H         136.6945  254.3762   -1.3384 H       1  UNL1        0.0000
    180 H         135.7424  259.2081    1.2990 H       1  UNL1        0.0000
    181 H         136.3608  260.0241   -0.1771 H       1  UNL1        0.0000
    182 H         137.6041  260.2189    2.3761 H       1  UNL1        0.0000
    183 H         139.2199  258.8056   -4.6108 H       1  UNL1        0.0000
    184 H         137.1731  254.6236    0.4656 H       1  UNL1        0.0000
    185 H         138.8669  255.1451    2.8692 H       1  UNL1        0.0000
    186 H         140.8459  260.7273    4.1665 H       1  UNL1        0.0000
    187 H         140.3241  259.7817    2.7263 H       1  UNL1        0.0000
    188 H         138.8079  261.3236    3.6864 H       1  UNL1        0.0000
    189 H         140.3139  254.3939    5.0230 H       1  UNL1        0.0000
    190 H         142.5098  255.2845    6.7194 H       1  UNL1        0.0000
    191 H         149.0189  251.7536   -1.3833 H       1  UNL1        0.0000
    192 H         149.4038  251.7029    0.3651 H       1  UNL1        0.0000
    193 H         145.5958  253.7287    5.8945 H       1  UNL1        0.0000
    194 H         146.4123  255.2602    6.3995 H       1  UNL1        0.0000
    195 H         144.9603  254.4923    7.9695 H       1  UNL1        0.0000
    196 H         144.1104  253.6509   -6.0964 H       1  UNL1        0.0000
    197 H         144.9756  259.6734    3.3214 H       1  UNL1        0.0000
    198 H         147.2586  257.6618    1.7344 H       1  UNL1        0.0000
    199 H         158.1725  249.4632    3.7128 H       1  UNL1        0.0000
    200 H         158.6962  252.2846    3.5836 H       1  UNL1        0.0000
    201 H         160.9768  250.8093    2.1990 H       1  UNL1        0.0000
    202 H         160.7152  252.4605    4.8364 H       1  UNL1        0.0000
    203 H         160.9421  250.4786    6.0410 H       1  UNL1        0.0000
    204 H         161.6423  248.0465    5.7626 H       1  UNL1        0.0000
    205 H         163.6543  247.4199    6.9041 H       1  UNL1        0.0000
    206 H         165.1781  248.8876    4.7408 H       1  UNL1        0.0000
    207 H         165.1798  245.8649    5.4114 H       1  UNL1        0.0000
    208 H         163.3999  245.9756    3.2508 H       1  UNL1        0.0000
    209 H         159.4981  250.9675    0.4041 H       1  UNL1        0.0000
    210 H         157.3788  251.3890   -2.1910 H       1  UNL1        0.0000
    211 H         159.2802  250.0481   -1.9122 H       1  UNL1        0.0000
    212 H         157.8089  247.6601   -0.6899 H       1  UNL1        0.0000
    213 H         158.8627  248.7403    1.5666 H       1  UNL1        0.0000
    214 H         159.5243  246.7303   -2.2521 H       1  UNL1        0.0000
    215 H         158.3251  247.9539   -4.6857 H       1  UNL1        0.0000
    216 H         161.6529  249.1859   -5.4488 H       1  UNL1        0.0000
    217 H         162.1298  247.9451   -3.4422 H       1  UNL1        0.0000
    218 H         161.3157  245.6481   -3.1591 H       1  UNL1        0.0000
    219 H         164.2411  245.5475   -1.8918 H       1  UNL1        0.0000
    220 H         165.5591  245.1876   -4.6685 H       1  UNL1        0.0000
    221 H         164.8624  247.1423   -5.3351 H       1  UNL1        0.0000
    222 H         165.6282  248.5079   -2.0517 H       1  UNL1        0.0000
    223 H         167.0031  246.0958   -2.9887 H       1  UNL1        0.0000
    224 H         167.4860  247.0327    4.0507 H       1  UNL1        0.0000
    225 H         167.8376  248.3543    1.8981 H       1  UNL1        0.0000
    226 H         166.0864  248.5508    0.2483 H       1  UNL1        0.0000
    227 H         165.3813  245.7750    0.0774 H       1  UNL1        0.0000
    228 H         167.6649  244.8460    2.7975 H       1  UNL1        0.0000
    229 H         164.5711  249.1585    7.7210 H       1  UNL1        0.0000
    230 H         166.5954  248.8565    6.2849 H       1  UNL1        0.0000
    231 H         169.8313  245.2064    2.0618 H       1  UNL1        0.0000
    232 H         169.5669  246.6552    3.0830 H       1  UNL1        0.0000
    233 H         166.7224  249.1437    3.7299 H       1  UNL1        0.0000
    234 H         164.5078  248.3358    2.0328 H       1  UNL1        0.0000
    235 H         167.1148  249.4684   -3.4423 H       1  UNL1        0.0000
    236 H         166.2249  248.8173   -4.8436 H       1  UNL1        0.0000
    237 H         164.9396  243.4885   -2.6534 H       1  UNL1        0.0000
    238 H         163.0901  244.7488   -4.9456 H       1  UNL1        0.0000
    239 H         160.2863  248.8473   -7.2382 H       1  UNL1        0.0000
    240 H         159.2414  247.6414   -6.4576 H       1  UNL1        0.0000
    241 H         160.6851  246.9632   -8.1757 H       1  UNL1        0.0000
    242 H         167.5902  246.9380   -4.6839 H       1  UNL1        0.0000
    243 H         161.1480  245.6946   -5.7394 H       1  UNL1        0.0000
    244 H         158.9139  245.0234   -3.9129 H       1  UNL1        0.0000
    245 H         155.3715  249.6885   -0.6067 H       1  UNL1        0.0000
    246 H         155.5444  249.6577   -2.3678 H       1  UNL1        0.0000
    247 H         159.8664  247.3684    0.1095 H       1  UNL1        0.0000
    248 H         156.5545  249.8402    1.5764 H       1  UNL1        0.0000
    249 H         162.9516  244.5020    5.0773 H       1  UNL1        0.0000
    250 H         162.6005  245.8112    6.2319 H       1  UNL1        0.0000
    251 H         160.6782  245.1971    5.3567 H       1  UNL1        0.0000
    252 H         158.8219  251.5269    5.9248 H       1  UNL1        0.0000
    253 H         158.0756  249.9069    6.1554 H       1  UNL1        0.0000
    254 H         156.5676  251.6361    5.9750 H       1  UNL1        0.0000
    255 H         170.2429  247.5807    1.3226 H       1  UNL1        0.0000
    256 H         161.7129  252.9853    2.2777 H       1  UNL1        0.0000
    257 H         163.0847  251.5682    4.6314 H       1  UNL1        0.0000
@<TRIPOS>BOND
     1     1     2     1
     2     1     6     1
     3     1    62     1
     4     1   140     1
     5     2     3     1
     6     2    59     1
     7     2   141     1
     8     3     4     1
     9     3    65     1
    10     3   142     1
    11     4     5     1
    12     4    66     1
    13     4   143     1
    14     5     6     1
    15     5    37     1
    16     5   144     1
    17     7     8     1
    18     7    12     1
    19     7    37     1
    20     7   145     1
    21     8     9     1
    22     8    38     1
    23     8   146     1
    24     9    10     1
    25     9    39     1
    26     9   147     1
    27    10    11     1
    28    10    40     1
    29    10   148     1
    30    11    12     1
    31    11    60     1
    32    11   149     1
    33    13    14     1
    34    13    18     1
    35    13    59     1
    36    13   150     1
    37    14    15     1
    38    15    16     1
    39    15    55     1
    40    15   151     1
    41    16    17     1
    42    16    54     1
    43    16   152     1
    44    17    18     1
    45    17    57     1
    46    17   153     1
    47    18    58     1
    48    18   154     1
    49    19    20     1
    50    19    24     1
    51    19    53     1
    52    19   155     1
    53    20    21     1
    54    20    54     1
    55    20   156     1
    56    21    22     1
    57    22    23     1
    58    22    49     1
    59    22   157     1
    60    23    24     1
    61    23    48     1
    62    23   158     1
    63    24    52     1
    64    24   159     1
    65    25    26     1
    66    25    30     1
    67    25    46     1
    68    25   160     1
    69    26    27     1
    70    26    47     1
    71    26   161     1
    72    27    28     1
    73    27    48     1
    74    27   162     1
    75    28    29     1
    76    29    30     1
    77    29    45     1
    78    29   163     1
    79    30    44     1
    80    30   164     1
    81    31    32     1
    82    31    36     1
    83    31    40     1
    84    31   165     1
    85    32    33     1
    86    32    42     1
    87    32   166     1
    88    33    34     1
    89    33    43     1
    90    33   167     1
    91    34    35     1
    92    34    44     1
    93    34   168     1
    94    35    36     1
    95    36    41     1
    96    36   169     1
    97    38   170     1
    98    39   171     1
    99    41    64     1
   100    41   172     1
   101    41   173     1
   102    42   174     1
   103    43   175     1
   104    45    51     1
   105    45   176     1
   106    45   177     1
   107    46   178     1
   108    47   179     1
   109    49    50     1
   110    49   180     1
   111    49   181     1
   112    50   182     1
   113    51   183     1
   114    52   184     1
   115    53   185     1
   116    55    56     1
   117    55   186     1
   118    55   187     1
   119    56   188     1
   120    57   189     1
   121    58   190     1
   122    60    61     1
   123    60   191     1
   124    60   192     1
   125    61   135     1
   126    62    63     1
   127    62   193     1
   128    62   194     1
   129    63   195     1
   130    64   196     1
   131    65   197     1
   132    66   198     1
   133    67    68     1
   134    67    72     1
   135    67   128     1
   136    67   199     1
   137    68    69     1
   138    68   125     1
   139    68   200     1
   140    69    70     1
   141    69   131     1
   142    69   201     1
   143    70    71     1
   144    70   132     1
   145    70   202     1
   146    71    72     1
   147    71   103     1
   148    71   203     1
   149    73    74     1
   150    73    78     1
   151    73   103     1
   152    73   204     1
   153    74    75     1
   154    74   104     1
   155    74   205     1
   156    75    76     1
   157    75   105     1
   158    75   206     1
   159    76    77     1
   160    76   106     1
   161    76   207     1
   162    77    78     1
   163    77   126     1
   164    77   208     1
   165    79    80     1
   166    79    84     1
   167    79   125     1
   168    79   209     1
   169    80    81     1
   170    81    82     1
   171    81   121     1
   172    81   210     1
   173    82    83     1
   174    82   120     1
   175    82   211     1
   176    83    84     1
   177    83   123     1
   178    83   212     1
   179    84   124     1
   180    84   213     1
   181    85    86     1
   182    85    90     1
   183    85   119     1
   184    85   214     1
   185    86    87     1
   186    86   120     1
   187    86   215     1
   188    87    88     1
   189    88    89     1
   190    88   115     1
   191    88   216     1
   192    89    90     1
   193    89   114     1
   194    89   217     1
   195    90   118     1
   196    90   218     1
   197    91    92     1
   198    91    96     1
   199    91   112     1
   200    91   219     1
   201    92    93     1
   202    92   113     1
   203    92   220     1
   204    93    94     1
   205    93   114     1
   206    93   221     1
   207    94    95     1
   208    95    96     1
   209    95   111     1
   210    95   222     1
   211    96   110     1
   212    96   223     1
   213    97    98     1
   214    97   102     1
   215    97   106     1
   216    97   224     1
   217    98    99     1
   218    98   108     1
   219    98   225     1
   220    99   100     1
   221    99   109     1
   222    99   226     1
   223   100   101     1
   224   100   110     1
   225   100   227     1
   226   101   102     1
   227   102   107     1
   228   102   228     1
   229   104   229     1
   230   105   230     1
   231   107   130     1
   232   107   231     1
   233   107   232     1
   234   108   233     1
   235   109   234     1
   236   111   117     1
   237   111   235     1
   238   111   236     1
   239   112   237     1
   240   113   238     1
   241   115   116     1
   242   115   239     1
   243   115   240     1
   244   116   241     1
   245   117   242     1
   246   118   243     1
   247   119   244     1
   248   121   122     1
   249   121   245     1
   250   121   246     1
   251   122   137     1
   252   123   247     1
   253   124   248     1
   254   126   127     1
   255   126   249     1
   256   126   250     1
   257   127   251     1
   258   128   129     1
   259   128   252     1
   260   128   253     1
   261   129   254     1
   262   130   255     1
   263   131   256     1
   264   132   257     1
   265   133   134     1
   266   133   138     2
   267   133   139     1
   268   134   135     2
   269   135   136     1
   270   136   137     2
   271   137   138     1
