@<TRIPOS>MOLECULE
generated by VMD
257  271    1    0    0
SMALL
NO_CHARGES
****
Energy = 0

@<TRIPOS>ATOM
      1 C         173.9876  120.8353    4.9021 C.3     1  UNL1        0.0000
      2 C         172.6112  120.2085    5.1463 C.3     1  UNL1        0.0000
      3 C         172.0908  119.5279    3.8962 C.3     1  UNL1        0.0000
      4 C         173.1153  118.4865    3.4611 C.3     1  UNL1        0.0000
      5 C         174.5506  119.0068    3.4982 C.3     1  UNL1        0.0000
      6 O         174.5808  120.3969    3.7059 O.3     1  UNL1        0.0000
      7 C         176.0055  119.5882    1.6152 C.3     1  UNL1        0.0000
      8 C         175.1514  120.3114    0.5894 C.3     1  UNL1        0.0000
      9 C         175.1505  119.5452   -0.7186 C.3     1  UNL1        0.0000
     10 C         176.5651  119.6231   -1.3015 C.3     1  UNL1        0.0000
     11 C         177.6069  119.4024   -0.1609 C.3     1  UNL1        0.0000
     12 O         177.0352  118.8099    0.9890 O.3     1  UNL1        0.0000
     13 C         171.2467  122.1809    4.9696 C.3     1  UNL1        0.0000
     14 O         169.9367  121.8453    4.5518 O.3     1  UNL1        0.0000
     15 C         168.9983  122.8943    4.6009 C.3     1  UNL1        0.0000
     16 C         169.6357  124.2019    4.1164 C.3     1  UNL1        0.0000
     17 C         170.7027  124.6106    5.1346 C.3     1  UNL1        0.0000
     18 C         171.2663  123.4023    5.8580 C.3     1  UNL1        0.0000
     19 C         169.4001  126.8377    2.3217 C.3     1  UNL1        0.0000
     20 C         168.4119  125.7947    2.7835 C.3     1  UNL1        0.0000
     21 O         168.2306  124.7839    1.8248 O.3     1  UNL1        0.0000
     22 C         167.6769  125.2357    0.6179 C.3     1  UNL1        0.0000
     23 C         168.4816  126.3819   -0.0043 C.3     1  UNL1        0.0000
     24 C         168.8579  127.4377    1.0350 C.3     1  UNL1        0.0000
     25 C         172.1945  125.7404   -2.4550 C.3     1  UNL1        0.0000
     26 C         171.0349  126.7104   -2.4014 C.3     1  UNL1        0.0000
     27 C         169.7596  125.9901   -2.0064 C.3     1  UNL1        0.0000
     28 O         169.7801  124.6342   -2.4179 O.3     1  UNL1        0.0000
     29 C         170.4447  124.3926   -3.6309 C.3     1  UNL1        0.0000
     30 C         171.9581  124.6918   -3.5407 C.3     1  UNL1        0.0000
     31 C         175.7792  121.6596   -2.4240 C.3     1  UNL1        0.0000
     32 C         176.2504  123.0718   -2.7050 C.3     1  UNL1        0.0000
     33 C         175.0281  123.9247   -3.0206 C.3     1  UNL1        0.0000
     34 C         173.9135  123.2788   -3.8379 C.3     1  UNL1        0.0000
     35 O         173.9063  121.8551   -3.9317 O.3     1  UNL1        0.0000
     36 C         175.0998  121.1590   -3.6899 C.3     1  UNL1        0.0000
     37 O         175.2037  118.6333    2.2892 O.3     1  UNL1        0.0000
     38 O         173.8110  120.4547    0.9942 O.3     1  UNL1        0.0000
     39 O         174.7509  118.2149   -0.4750 O.3     1  UNL1        0.0000
     40 O         176.8467  120.8645   -1.9497 O.3     1  UNL1        0.0000
     41 C         175.9351  121.0338   -4.9590 C.3     1  UNL1        0.0000
     42 O         176.8865  123.5682   -1.5492 O.3     1  UNL1        0.0000
     43 O         175.4540  125.0964   -3.6840 O.3     1  UNL1        0.0000
     44 O         172.6363  123.4920   -3.2377 O.3     1  UNL1        0.0000
     45 C         169.7322  125.0374   -4.8180 C.3     1  UNL1        0.0000
     46 O         173.3486  126.5037   -2.7032 O.3     1  UNL1        0.0000
     47 O         171.3665  127.7461   -1.5062 O.3     1  UNL1        0.0000
     48 O         169.6693  125.8977   -0.5894 O.3     1  UNL1        0.0000
     49 C         166.1958  125.5511    0.7986 C.3     1  UNL1        0.0000
     50 O         165.6074  124.5423    1.6001 O.3     1  UNL1        0.0000
     51 O         168.3489  124.7423   -4.7730 O.3     1  UNL1        0.0000
     52 O         169.8394  128.2865    0.4922 O.3     1  UNL1        0.0000
     53 O         170.6653  126.2852    2.0577 O.3     1  UNL1        0.0000
     54 O         168.6939  125.2372    4.0488 O.3     1  UNL1        0.0000
     55 C         167.7802  122.4134    3.8163 C.3     1  UNL1        0.0000
     56 O         166.6584  123.2538    4.0099 O.3     1  UNL1        0.0000
     57 O         171.7455  125.2849    4.4717 O.3     1  UNL1        0.0000
     58 O         172.5905  123.6718    6.2549 O.3     1  UNL1        0.0000
     59 O         171.7095  121.0983    5.7542 O.3     1  UNL1        0.0000
     60 C         178.9986  118.7798   -0.4973 C.3     1  UNL1        0.0000
     61 O         179.0747  117.3766   -0.7536 O.3     1  UNL1        0.0000
     62 C         174.9231  120.6887    6.0956 C.3     1  UNL1        0.0000
     63 O         174.3696  121.3767    7.2028 O.3     1  UNL1        0.0000
     64 O         176.0243  122.2613   -5.6502 O.3     1  UNL1        0.0000
     65 O         170.8721  118.8696    4.1453 O.3     1  UNL1        0.0000
     66 O         172.7484  118.0619    2.1665 O.3     1  UNL1        0.0000
     67 C         185.9814  111.7981    4.1227 C.3     1  UNL1        0.0000
     68 C         185.1286  111.0629    3.0663 C.3     1  UNL1        0.0000
     69 C         185.7089  109.6771    2.8384 C.3     1  UNL1        0.0000
     70 C         186.0155  109.0850    4.2104 C.3     1  UNL1        0.0000
     71 C         187.0993  109.8528    4.9532 C.3     1  UNL1        0.0000
     72 O         187.2130  111.1581    4.4050 O.3     1  UNL1        0.0000
     73 C         189.5037  109.6447    5.2839 C.3     1  UNL1        0.0000
     74 C         190.2682  108.6910    6.1892 C.3     1  UNL1        0.0000
     75 C         191.1795  107.7541    5.3970 C.3     1  UNL1        0.0000
     76 C         192.2497  108.5969    4.6576 C.3     1  UNL1        0.0000
     77 C         191.6063  109.9506    4.2591 C.3     1  UNL1        0.0000
     78 O         190.2203  109.7972    4.0757 O.3     1  UNL1        0.0000
     79 C         185.3800  111.8887    0.7242 C.3     1  UNL1        0.0000
     80 O         184.3760  112.3724   -0.1703 O.3     1  UNL1        0.0000
     81 C         184.7909  112.9676   -1.3930 C.3     1  UNL1        0.0000
     82 C         186.2893  112.6546   -1.7541 C.3     1  UNL1        0.0000
     83 C         187.1824  113.0387   -0.5701 C.3     1  UNL1        0.0000
     84 C         186.4961  112.8949    0.7853 C.3     1  UNL1        0.0000
     85 C         189.1946  113.1242   -3.3560 C.3     1  UNL1        0.0000
     86 C         187.7693  112.8120   -3.7984 C.3     1  UNL1        0.0000
     87 O         187.5894  111.5108   -4.3348 O.3     1  UNL1        0.0000
     88 C         188.6448  111.0521   -5.1942 C.3     1  UNL1        0.0000
     89 C         189.9254  110.8627   -4.3446 C.3     1  UNL1        0.0000
     90 C         190.3332  112.2493   -3.9175 C.3     1  UNL1        0.0000
     91 C         193.4082  109.0927   -2.5602 C.3     1  UNL1        0.0000
     92 C         193.1124  109.4406   -4.0234 C.3     1  UNL1        0.0000
     93 C         191.6985  109.1090   -4.4805 C.3     1  UNL1        0.0000
     94 O         191.0158  108.4122   -3.4665 O.3     1  UNL1        0.0000
     95 C         191.7039  107.2861   -2.9298 C.3     1  UNL1        0.0000
     96 C         193.0785  107.6212   -2.3019 C.3     1  UNL1        0.0000
     97 C         193.1774  106.8229    3.1186 C.3     1  UNL1        0.0000
     98 C         192.1148  106.2761    2.1785 C.3     1  UNL1        0.0000
     99 C         191.9463  107.1466    0.9452 C.3     1  UNL1        0.0000
    100 C         193.2217  107.5795    0.2265 C.3     1  UNL1        0.0000
    101 O         194.4371  107.2757    0.9283 O.3     1  UNL1        0.0000
    102 C         194.4421  106.6995    2.2290 C.3     1  UNL1        0.0000
    103 O         188.2843  109.0968    4.7887 O.3     1  UNL1        0.0000
    104 O         189.4020  107.9770    7.0335 O.3     1  UNL1        0.0000
    105 O         191.7726  106.8376    6.2883 O.3     1  UNL1        0.0000
    106 O         192.9454  108.1597    3.4880 O.3     1  UNL1        0.0000
    107 C         194.9856  105.2568    2.1644 C.3     1  UNL1        0.0000
    108 O         190.9028  106.1472    2.8576 O.3     1  UNL1        0.0000
    109 O         191.2357  108.2967    1.3491 O.3     1  UNL1        0.0000
    110 O         193.3587  106.9622   -1.0587 O.3     1  UNL1        0.0000
    111 C         191.6217  106.0825   -3.8911 C.3     1  UNL1        0.0000
    112 O         194.7746  109.3722   -2.3731 O.3     1  UNL1        0.0000
    113 O         193.4437  110.7849   -4.2799 O.3     1  UNL1        0.0000
    114 O         190.9617  110.2095   -5.0522 O.3     1  UNL1        0.0000
    115 C         188.6576  111.8024   -6.5430 C.3     1  UNL1        0.0000
    116 O         189.8894  111.8106   -7.2435 O.3     1  UNL1        0.0000
    117 O         192.8780  105.5395   -4.2573 O.3     1  UNL1        0.0000
    118 O         190.8903  112.9243   -5.0244 O.3     1  UNL1        0.0000
    119 O         189.4705  114.4713   -3.7040 O.3     1  UNL1        0.0000
    120 O         186.6678  113.2673   -2.9785 O.3     1  UNL1        0.0000
    121 C         184.2377  114.4319   -1.4681 C.3     1  UNL1        0.0000
    122 O         182.8105  114.5420   -1.6268 O.3     1  UNL1        0.0000
    123 O         188.2839  112.1603   -0.5166 O.3     1  UNL1        0.0000
    124 O         185.9479  114.1236    1.2064 O.3     1  UNL1        0.0000
    125 O         184.6808  111.8433    1.9641 O.3     1  UNL1        0.0000
    126 C         191.9344  111.1464    5.1500 C.3     1  UNL1        0.0000
    127 O         191.1607  112.2493    4.7167 O.3     1  UNL1        0.0000
    128 C         185.2167  112.0706    5.4254 C.3     1  UNL1        0.0000
    129 O         184.0603  112.8449    5.1638 O.3     1  UNL1        0.0000
    130 O         194.4651  104.5269    1.0663 O.3     1  UNL1        0.0000
    131 O         184.7858  108.8015    2.2350 O.3     1  UNL1        0.0000
    132 O         186.4061  107.7425    4.0144 O.3     1  UNL1        0.0000
    133 C         181.5054  115.9526    1.2319 C.ar    1  UNL1        0.0000
    134 N         180.5127  116.6337    0.8267 N.ar    1  UNL1        0.0000
    135 C         180.2691  116.7056   -0.4129 C.ar    1  UNL1        0.0000
    136 N         181.0375  116.0690   -1.2220 N.ar    1  UNL1        0.0000
    137 C         182.0376  115.3771   -0.8096 C.ar    1  UNL1        0.0000
    138 N         182.2655  115.3338    0.4383 N.ar    1  UNL1        0.0000
    139 Cl        181.8217  115.8552    2.9301 Cl      1  UNL1        0.0000
    140 H         173.8845  121.9365    4.7484 H       1  UNL1        0.0000
    141 H         172.7441  119.3892    5.8974 H       1  UNL1        0.0000
    142 H         171.9076  120.2658    3.0840 H       1  UNL1        0.0000
    143 H         173.0507  117.5821    4.1122 H       1  UNL1        0.0000
    144 H         175.1204  118.5306    4.3303 H       1  UNL1        0.0000
    145 H         176.5035  120.2725    2.3349 H       1  UNL1        0.0000
    146 H         175.5397  121.3482    0.4587 H       1  UNL1        0.0000
    147 H         174.3472  119.8996   -1.3976 H       1  UNL1        0.0000
    148 H         176.6737  118.8162   -2.0629 H       1  UNL1        0.0000
    149 H         177.8768  120.4379    0.1820 H       1  UNL1        0.0000
    150 H         171.8750  122.3524    4.0701 H       1  UNL1        0.0000
    151 H         168.6667  123.0162    5.6613 H       1  UNL1        0.0000
    152 H         170.1025  124.0142    3.1249 H       1  UNL1        0.0000
    153 H         170.3045  125.3192    5.8993 H       1  UNL1        0.0000
    154 H         170.6970  123.1997    6.7960 H       1  UNL1        0.0000
    155 H         169.5471  127.6244    3.0970 H       1  UNL1        0.0000
    156 H         167.4367  126.3122    2.9471 H       1  UNL1        0.0000
    157 H         167.7208  124.3595   -0.0781 H       1  UNL1        0.0000
    158 H         167.8427  126.8813   -0.7682 H       1  UNL1        0.0000
    159 H         167.9705  128.0745    1.2654 H       1  UNL1        0.0000
    160 H         172.3173  125.2703   -1.4518 H       1  UNL1        0.0000
    161 H         170.9199  127.2139   -3.3883 H       1  UNL1        0.0000
    162 H         168.8805  126.4926   -2.4628 H       1  UNL1        0.0000
    163 H         170.3182  123.2927   -3.8055 H       1  UNL1        0.0000
    164 H         172.2851  125.0741   -4.5341 H       1  UNL1        0.0000
    165 H         175.0331  121.8100   -1.6130 H       1  UNL1        0.0000
    166 H         177.0142  123.0925   -3.5115 H       1  UNL1        0.0000
    167 H         174.6086  124.2545   -2.0417 H       1  UNL1        0.0000
    168 H         173.9006  123.6526   -4.8867 H       1  UNL1        0.0000
    169 H         174.7787  120.1061   -3.4855 H       1  UNL1        0.0000
    170 H         173.4552  119.5795    1.1607 H       1  UNL1        0.0000
    171 H         174.4284  117.8133   -1.2844 H       1  UNL1        0.0000
    172 H         175.4723  120.3161   -5.6748 H       1  UNL1        0.0000
    173 H         176.9673  120.6878   -4.7300 H       1  UNL1        0.0000
    174 H         177.6599  123.0243   -1.3777 H       1  UNL1        0.0000
    175 H         175.0903  125.8732   -3.2577 H       1  UNL1        0.0000
    176 H         169.8282  126.1418   -4.8577 H       1  UNL1        0.0000
    177 H         170.1233  124.6313   -5.7783 H       1  UNL1        0.0000
    178 H         173.2834  127.3076   -2.1791 H       1  UNL1        0.0000
    179 H         170.6088  128.3096   -1.3384 H       1  UNL1        0.0000
    180 H         166.0179  126.5268    1.2990 H       1  UNL1        0.0000
    181 H         165.6599  125.5677   -0.1771 H       1  UNL1        0.0000
    182 H         166.1610  124.4133    2.3761 H       1  UNL1        0.0000
    183 H         168.2197  123.8053   -4.6108 H       1  UNL1        0.0000
    184 H         170.6561  127.7729    0.4656 H       1  UNL1        0.0000
    185 H         171.1225  126.0631    2.8692 H       1  UNL1        0.0000
    186 H         167.4671  121.4031    4.1665 H       1  UNL1        0.0000
    187 H         167.9864  122.3500    2.7263 H       1  UNL1        0.0000
    188 H         165.8723  122.8051    3.6864 H       1  UNL1        0.0000
    189 H         172.5315  125.2432    5.0230 H       1  UNL1        0.0000
    190 H         172.9550  122.9117    6.7194 H       1  UNL1        0.0000
    191 H         179.4221  119.3044   -1.3833 H       1  UNL1        0.0000
    192 H         179.6710  119.0064    0.3651 H       1  UNL1        0.0000
    193 H         175.9212  121.1381    5.8945 H       1  UNL1        0.0000
    194 H         175.0648  119.6286    6.3995 H       1  UNL1        0.0000
    195 H         174.9360  121.2661    7.9695 H       1  UNL1        0.0000
    196 H         175.1917  122.4344   -6.0964 H       1  UNL1        0.0000
    197 H         170.5682  118.4793    3.3214 H       1  UNL1        0.0000
    198 H         173.4895  117.6280    1.7344 H       1  UNL1        0.0000
    199 H         186.2573  112.7994    3.7128 H       1  UNL1        0.0000
    200 H         184.1546  110.8466    3.5836 H       1  UNL1        0.0000
    201 H         186.6217  109.7102    2.1990 H       1  UNL1        0.0000
    202 H         185.0870  109.0472    4.8364 H       1  UNL1        0.0000
    203 H         186.8824  109.9165    6.0410 H       1  UNL1        0.0000
    204 H         189.3115  110.6272    5.7626 H       1  UNL1        0.0000
    205 H         190.9179  109.2633    6.9041 H       1  UNL1        0.0000
    206 H         190.4941  107.1906    4.7408 H       1  UNL1        0.0000
    207 H         193.0480  108.8074    5.4114 H       1  UNL1        0.0000
    208 H         192.0015  110.2515    3.2508 H       1  UNL1        0.0000
    209 H         185.6964  110.8744    0.4041 H       1  UNL1        0.0000
    210 H         184.2057  112.4388   -2.1910 H       1  UNL1        0.0000
    211 H         186.3563  111.5507   -1.9122 H       1  UNL1        0.0000
    212 H         187.5855  114.0719   -0.6899 H       1  UNL1        0.0000
    213 H         187.2373  112.6035    1.5666 H       1  UNL1        0.0000
    214 H         189.2892  113.1208   -2.2521 H       1  UNL1        0.0000
    215 H         187.6138  113.4786   -4.6857 H       1  UNL1        0.0000
    216 H         188.3548  110.0083   -5.4488 H       1  UNL1        0.0000
    217 H         189.6581  110.2698   -3.4422 H       1  UNL1        0.0000
    218 H         191.1623  112.1871   -3.1591 H       1  UNL1        0.0000
    219 H         192.8135  109.7702   -1.8918 H       1  UNL1        0.0000
    220 H         193.8232  108.8497   -4.6685 H       1  UNL1        0.0000
    221 H         191.7992  108.3916   -5.3351 H       1  UNL1        0.0000
    222 H         191.0557  107.0137   -2.0517 H       1  UNL1        0.0000
    223 H         193.8292  107.1438   -2.9887 H       1  UNL1        0.0000
    224 H         193.2964  106.2344    4.0507 H       1  UNL1        0.0000
    225 H         192.3684  105.2299    1.8981 H       1  UNL1        0.0000
    226 H         191.2649  106.6037    0.2483 H       1  UNL1        0.0000
    227 H         193.2318  108.6854    0.0774 H       1  UNL1        0.0000
    228 H         195.2390  107.2540    2.7975 H       1  UNL1        0.0000
    229 H         189.9403  107.5582    7.7210 H       1  UNL1        0.0000
    230 H         191.2791  106.0101    6.2849 H       1  UNL1        0.0000
    231 H         196.0944  105.2313    2.0618 H       1  UNL1        0.0000
    232 H         194.7293  104.6790    3.0830 H       1  UNL1        0.0000
    233 H         191.1046  105.7492    3.7299 H       1  UNL1        0.0000
    234 H         190.6012  108.0521    2.0328 H       1  UNL1        0.0000
    235 H         191.0404  105.2439   -3.4423 H       1  UNL1        0.0000
    236 H         191.1139  106.3441   -4.8436 H       1  UNL1        0.0000
    237 H         194.9265  110.2826   -2.6534 H       1  UNL1        0.0000
    238 H         192.8719  111.1700   -4.9456 H       1  UNL1        0.0000
    239 H         187.9092  111.3438   -7.2382 H       1  UNL1        0.0000
    240 H         188.3683  112.8720   -6.4576 H       1  UNL1        0.0000
    241 H         189.7140  112.0158   -8.1757 H       1  UNL1        0.0000
    242 H         193.4322  106.1971   -4.6839 H       1  UNL1        0.0000
    243 H         191.0333  112.3039   -5.7394 H       1  UNL1        0.0000
    244 H         190.4041  114.5503   -3.9129 H       1  UNL1        0.0000
    245 H         184.5674  115.0445   -0.6067 H       1  UNL1        0.0000
    246 H         184.6859  114.9150   -2.3678 H       1  UNL1        0.0000
    247 H         188.9334  112.4903    0.1095 H       1  UNL1        0.0000
    248 H         185.0726  113.9642    1.5764 H       1  UNL1        0.0000
    249 H         193.0062  111.4191    5.0773 H       1  UNL1        0.0000
    250 H         191.7124  111.0146    6.2319 H       1  UNL1        0.0000
    251 H         191.2019  112.9670    5.3567 H       1  UNL1        0.0000
    252 H         184.8619  111.1460    5.9248 H       1  UNL1        0.0000
    253 H         185.8306  112.6436    6.1554 H       1  UNL1        0.0000
    254 H         183.5628  112.9916    5.9750 H       1  UNL1        0.0000
    255 H         194.3094  103.6125    1.3226 H       1  UNL1        0.0000
    256 H         185.1779  107.9235    2.2777 H       1  UNL1        0.0000
    257 H         187.1092  107.5235    4.6314 H       1  UNL1        0.0000
@<TRIPOS>BOND
     1     1     2     1
     2     1     6     1
     3     1    62     1
     4     1   140     1
     5     2     3     1
     6     2    59     1
     7     2   141     1
     8     3     4     1
     9     3    65     1
    10     3   142     1
    11     4     5     1
    12     4    66     1
    13     4   143     1
    14     5     6     1
    15     5    37     1
    16     5   144     1
    17     7     8     1
    18     7    12     1
    19     7    37     1
    20     7   145     1
    21     8     9     1
    22     8    38     1
    23     8   146     1
    24     9    10     1
    25     9    39     1
    26     9   147     1
    27    10    11     1
    28    10    40     1
    29    10   148     1
    30    11    12     1
    31    11    60     1
    32    11   149     1
    33    13    14     1
    34    13    18     1
    35    13    59     1
    36    13   150     1
    37    14    15     1
    38    15    16     1
    39    15    55     1
    40    15   151     1
    41    16    17     1
    42    16    54     1
    43    16   152     1
    44    17    18     1
    45    17    57     1
    46    17   153     1
    47    18    58     1
    48    18   154     1
    49    19    20     1
    50    19    24     1
    51    19    53     1
    52    19   155     1
    53    20    21     1
    54    20    54     1
    55    20   156     1
    56    21    22     1
    57    22    23     1
    58    22    49     1
    59    22   157     1
    60    23    24     1
    61    23    48     1
    62    23   158     1
    63    24    52     1
    64    24   159     1
    65    25    26     1
    66    25    30     1
    67    25    46     1
    68    25   160     1
    69    26    27     1
    70    26    47     1
    71    26   161     1
    72    27    28     1
    73    27    48     1
    74    27   162     1
    75    28    29     1
    76    29    30     1
    77    29    45     1
    78    29   163     1
    79    30    44     1
    80    30   164     1
    81    31    32     1
    82    31    36     1
    83    31    40     1
    84    31   165     1
    85    32    33     1
    86    32    42     1
    87    32   166     1
    88    33    34     1
    89    33    43     1
    90    33   167     1
    91    34    35     1
    92    34    44     1
    93    34   168     1
    94    35    36     1
    95    36    41     1
    96    36   169     1
    97    38   170     1
    98    39   171     1
    99    41    64     1
   100    41   172     1
   101    41   173     1
   102    42   174     1
   103    43   175     1
   104    45    51     1
   105    45   176     1
   106    45   177     1
   107    46   178     1
   108    47   179     1
   109    49    50     1
   110    49   180     1
   111    49   181     1
   112    50   182     1
   113    51   183     1
   114    52   184     1
   115    53   185     1
   116    55    56     1
   117    55   186     1
   118    55   187     1
   119    56   188     1
   120    57   189     1
   121    58   190     1
   122    60    61     1
   123    60   191     1
   124    60   192     1
   125    61   135     1
   126    62    63     1
   127    62   193     1
   128    62   194     1
   129    63   195     1
   130    64   196     1
   131    65   197     1
   132    66   198     1
   133    67    68     1
   134    67    72     1
   135    67   128     1
   136    67   199     1
   137    68    69     1
   138    68   125     1
   139    68   200     1
   140    69    70     1
   141    69   131     1
   142    69   201     1
   143    70    71     1
   144    70   132     1
   145    70   202     1
   146    71    72     1
   147    71   103     1
   148    71   203     1
   149    73    74     1
   150    73    78     1
   151    73   103     1
   152    73   204     1
   153    74    75     1
   154    74   104     1
   155    74   205     1
   156    75    76     1
   157    75   105     1
   158    75   206     1
   159    76    77     1
   160    76   106     1
   161    76   207     1
   162    77    78     1
   163    77   126     1
   164    77   208     1
   165    79    80     1
   166    79    84     1
   167    79   125     1
   168    79   209     1
   169    80    81     1
   170    81    82     1
   171    81   121     1
   172    81   210     1
   173    82    83     1
   174    82   120     1
   175    82   211     1
   176    83    84     1
   177    83   123     1
   178    83   212     1
   179    84   124     1
   180    84   213     1
   181    85    86     1
   182    85    90     1
   183    85   119     1
   184    85   214     1
   185    86    87     1
   186    86   120     1
   187    86   215     1
   188    87    88     1
   189    88    89     1
   190    88   115     1
   191    88   216     1
   192    89    90     1
   193    89   114     1
   194    89   217     1
   195    90   118     1
   196    90   218     1
   197    91    92     1
   198    91    96     1
   199    91   112     1
   200    91   219     1
   201    92    93     1
   202    92   113     1
   203    92   220     1
   204    93    94     1
   205    93   114     1
   206    93   221     1
   207    94    95     1
   208    95    96     1
   209    95   111     1
   210    95   222     1
   211    96   110     1
   212    96   223     1
   213    97    98     1
   214    97   102     1
   215    97   106     1
   216    97   224     1
   217    98    99     1
   218    98   108     1
   219    98   225     1
   220    99   100     1
   221    99   109     1
   222    99   226     1
   223   100   101     1
   224   100   110     1
   225   100   227     1
   226   101   102     1
   227   102   107     1
   228   102   228     1
   229   104   229     1
   230   105   230     1
   231   107   130     1
   232   107   231     1
   233   107   232     1
   234   108   233     1
   235   109   234     1
   236   111   117     1
   237   111   235     1
   238   111   236     1
   239   112   237     1
   240   113   238     1
   241   115   116     1
   242   115   239     1
   243   115   240     1
   244   116   241     1
   245   117   242     1
   246   118   243     1
   247   119   244     1
   248   121   122     1
   249   121   245     1
   250   121   246     1
   251   122   137     1
   252   123   247     1
   253   124   248     1
   254   126   127     1
   255   126   249     1
   256   126   250     1
   257   127   251     1
   258   128   129     1
   259   128   252     1
   260   128   253     1
   261   129   254     1
   262   130   255     1
   263   131   256     1
   264   132   257     1
   265   133   134     1
   266   133   138     2
   267   133   139     1
   268   134   135     2
   269   135   136     1
   270   136   137     2
   271   137   138     1
