@<TRIPOS>MOLECULE
generated by VMD
126  132    1    0    0
SMALL
NO_CHARGES
****
Energy = 0

@<TRIPOS>ATOM
      1 C         189.2815  266.0632    5.3915 C.3     1  UNL1        0.0000
      2 C         188.8041  265.6165    4.0022 C.3     1  UNL1        0.0000
      3 C         189.7327  264.5842    3.3622 C.3     1  UNL1        0.0000
      4 C         190.7741  264.1074    4.3502 C.3     1  UNL1        0.0000
      5 C         191.5013  265.2902    4.9518 C.3     1  UNL1        0.0000
      6 O         190.6568  266.3290    5.4138 O.3     1  UNL1        0.0000
      7 C         193.4070  266.6016    4.3548 C.3     1  UNL1        0.0000
      8 C         194.5259  265.6679    4.7534 C.3     1  UNL1        0.0000
      9 C         195.8646  266.3886    4.8433 C.3     1  UNL1        0.0000
     10 C         196.1178  267.2535    3.6070 C.3     1  UNL1        0.0000
     11 C         194.8845  268.0917    3.2583 C.3     1  UNL1        0.0000
     12 O         193.7178  267.3245    3.1806 O.3     1  UNL1        0.0000
     13 C         188.4804  266.6923    1.8551 C.3     1  UNL1        0.0000
     14 O         187.6970  265.5813    1.5287 O.3     1  UNL1        0.0000
     15 C         187.8100  265.2444    0.1657 C.3     1  UNL1        0.0000
     16 C         187.9611  266.5038   -0.7056 C.3     1  UNL1        0.0000
     17 C         187.1736  267.6328   -0.0533 C.3     1  UNL1        0.0000
     18 C         187.8176  267.9386    1.2959 C.3     1  UNL1        0.0000
     19 C         189.0171  267.7992   -3.2110 C.3     1  UNL1        0.0000
     20 C         188.5234  266.3871   -3.0202 C.3     1  UNL1        0.0000
     21 O         189.5932  265.5343   -2.6850 O.3     1  UNL1        0.0000
     22 C         190.5819  265.4428   -3.6813 C.3     1  UNL1        0.0000
     23 C         191.1456  266.8205   -4.0723 C.3     1  UNL1        0.0000
     24 C         190.0026  267.7900   -4.3589 C.3     1  UNL1        0.0000
     25 C         194.6595  267.8437   -3.4005 C.3     1  UNL1        0.0000
     26 C         194.0435  267.9125   -4.7804 C.3     1  UNL1        0.0000
     27 C         193.3126  266.6286   -5.1331 C.3     1  UNL1        0.0000
     28 O         193.5995  265.5794   -4.2401 O.3     1  UNL1        0.0000
     29 C         194.9815  265.4319   -4.0538 C.3     1  UNL1        0.0000
     30 C         195.5800  266.6327   -3.3044 C.3     1  UNL1        0.0000
     31 C         196.4876  266.6296    1.2740 C.3     1  UNL1        0.0000
     32 C         197.5127  267.6407    0.7869 C.3     1  UNL1        0.0000
     33 C         197.1711  267.9009   -0.6685 C.3     1  UNL1        0.0000
     34 C         197.0965  266.6104   -1.4592 C.3     1  UNL1        0.0000
     35 O         197.4411  265.4834   -0.6830 O.3     1  UNL1        0.0000
     36 C         196.6890  265.3172    0.4908 C.3     1  UNL1        0.0000
     37 O         192.2752  265.8748    3.9197 O.3     1  UNL1        0.0000
     38 O         194.5901  264.6143    3.8173 O.3     1  UNL1        0.0000
     39 O         195.8916  267.1801    6.0063 O.3     1  UNL1        0.0000
     40 O         196.5738  266.3399    2.6359 O.3     1  UNL1        0.0000
     41 C         197.3508  264.1898    1.2799 C.3     1  UNL1        0.0000
     42 O         197.4500  268.8656    1.4711 O.3     1  UNL1        0.0000
     43 O         198.1398  268.7641   -1.2130 O.3     1  UNL1        0.0000
     44 O         195.7988  266.3338   -1.9504 O.3     1  UNL1        0.0000
     45 C         195.2664  264.0731   -3.4254 C.3     1  UNL1        0.0000
     46 O         195.3891  269.0314   -3.1854 O.3     1  UNL1        0.0000
     47 O         193.2253  269.0549   -4.8502 O.3     1  UNL1        0.0000
     48 O         191.9103  266.7482   -5.2467 O.3     1  UNL1        0.0000
     49 C         190.1008  264.5894   -4.8490 C.3     1  UNL1        0.0000
     50 O         191.2108  264.0056   -5.5050 O.3     1  UNL1        0.0000
     51 O         194.5671  263.9272   -2.2055 O.3     1  UNL1        0.0000
     52 O         190.4898  269.0988   -4.5146 O.3     1  UNL1        0.0000
     53 O         187.9521  268.6549   -3.5456 O.3     1  UNL1        0.0000
     54 O         187.5316  266.2670   -2.0192 O.3     1  UNL1        0.0000
     55 C         186.6069  264.3692   -0.1632 C.3     1  UNL1        0.0000
     56 O         186.5548  263.3015    0.7624 O.3     1  UNL1        0.0000
     57 O         187.1790  268.7969   -0.8416 O.3     1  UNL1        0.0000
     58 O         186.8160  268.3941    2.1736 O.3     1  UNL1        0.0000
     59 O         188.6054  266.7966    3.2559 O.3     1  UNL1        0.0000
     60 C         194.6583  269.3206    4.1351 C.3     1  UNL1        0.0000
     61 O         193.5191  270.0119    3.6575 O.3     1  UNL1        0.0000
     62 C         188.8479  265.2107    6.5826 C.3     1  UNL1        0.0000
     63 O         188.8762  265.9943    7.7607 O.3     1  UNL1        0.0000
     64 O         198.5314  264.6591    1.9000 O.3     1  UNL1        0.0000
     65 O         189.0052  263.4543    2.9319 O.3     1  UNL1        0.0000
     66 O         191.6972  263.2712    3.6871 O.3     1  UNL1        0.0000
     67 H         188.7898  267.0549    5.5800 H       1  UNL1        0.0000
     68 H         187.7908  265.1612    4.1298 H       1  UNL1        0.0000
     69 H         190.2775  264.9714    2.4745 H       1  UNL1        0.0000
     70 H         190.3136  263.4593    5.1256 H       1  UNL1        0.0000
     71 H         192.1428  264.9418    5.7883 H       1  UNL1        0.0000
     72 H         193.1174  267.3014    5.1655 H       1  UNL1        0.0000
     73 H         194.3050  265.1876    5.7348 H       1  UNL1        0.0000
     74 H         196.6888  265.6474    4.9814 H       1  UNL1        0.0000
     75 H         196.9714  267.9403    3.8224 H       1  UNL1        0.0000
     76 H         195.0129  268.5511    2.2500 H       1  UNL1        0.0000
     77 H         189.5058  266.5844    1.4351 H       1  UNL1        0.0000
     78 H         188.7297  264.6196    0.0417 H       1  UNL1        0.0000
     79 H         189.0271  266.8217   -0.7104 H       1  UNL1        0.0000
     80 H         186.1064  267.3292    0.0558 H       1  UNL1        0.0000
     81 H         188.5769  268.7508    1.2194 H       1  UNL1        0.0000
     82 H         189.4970  268.2177   -2.2999 H       1  UNL1        0.0000
     83 H         188.0430  266.0207   -3.9583 H       1  UNL1        0.0000
     84 H         191.4067  264.8692   -3.1878 H       1  UNL1        0.0000
     85 H         191.7471  267.2422   -3.2344 H       1  UNL1        0.0000
     86 H         189.4798  267.5312   -5.3077 H       1  UNL1        0.0000
     87 H         193.8598  267.8075   -2.6247 H       1  UNL1        0.0000
     88 H         194.8641  268.0763   -5.5161 H       1  UNL1        0.0000
     89 H         193.6433  266.3091   -6.1567 H       1  UNL1        0.0000
     90 H         195.4563  265.3849   -5.0692 H       1  UNL1        0.0000
     91 H         196.5337  266.8906   -3.8204 H       1  UNL1        0.0000
     92 H         195.4535  266.9665    1.0373 H       1  UNL1        0.0000
     93 H         198.5525  267.2619    0.9100 H       1  UNL1        0.0000
     94 H         196.2062  268.4571   -0.7205 H       1  UNL1        0.0000
     95 H         197.8460  266.6072   -2.2823 H       1  UNL1        0.0000
     96 H         195.6837  264.9232    0.1998 H       1  UNL1        0.0000
     97 H         193.7105  264.2435    3.6886 H       1  UNL1        0.0000
     98 H         196.7982  267.3663    6.2612 H       1  UNL1        0.0000
     99 H         197.6282  263.3356    0.6206 H       1  UNL1        0.0000
    100 H         196.6923  263.7987    2.0865 H       1  UNL1        0.0000
    101 H         198.0482  269.4739    1.0280 H       1  UNL1        0.0000
    102 H         197.7766  269.1983   -1.9895 H       1  UNL1        0.0000
    103 H         196.3538  263.9406   -3.2216 H       1  UNL1        0.0000
    104 H         194.9217  263.2521   -4.0944 H       1  UNL1        0.0000
    105 H         194.8171  269.7757   -3.3989 H       1  UNL1        0.0000
    106 H         192.3073  268.8402   -5.0122 H       1  UNL1        0.0000
    107 H         189.4553  263.7495   -4.5046 H       1  UNL1        0.0000
    108 H         189.5394  265.1829   -5.6019 H       1  UNL1        0.0000
    109 H         191.8989  264.6653   -5.6255 H       1  UNL1        0.0000
    110 H         195.0008  264.4652   -1.5405 H       1  UNL1        0.0000
    111 H         189.7397  269.7004   -4.5107 H       1  UNL1        0.0000
    112 H         187.3746  268.7636   -2.7873 H       1  UNL1        0.0000
    113 H         185.6504  264.9322   -0.0819 H       1  UNL1        0.0000
    114 H         186.6774  263.9148   -1.1765 H       1  UNL1        0.0000
    115 H         185.8205  262.7213    0.5466 H       1  UNL1        0.0000
    116 H         186.7625  269.5065   -0.3462 H       1  UNL1        0.0000
    117 H         187.1459  268.3607    3.0748 H       1  UNL1        0.0000
    118 H         195.5269  270.0189    4.0839 H       1  UNL1        0.0000
    119 H         194.4573  269.0840    5.2002 H       1  UNL1        0.0000
    120 H         192.8073  269.3721    3.5544 H       1  UNL1        0.0000
    121 H         189.4952  264.3321    6.7844 H       1  UNL1        0.0000
    122 H         187.7988  264.8567    6.4646 H       1  UNL1        0.0000
    123 H         188.6003  265.4564    8.5076 H       1  UNL1        0.0000
    124 H         198.2761  265.2073    2.6474 H       1  UNL1        0.0000
    125 H         188.3556  263.6787    2.2589 H       1  UNL1        0.0000
    126 H         191.2115  262.5586    3.2623 H       1  UNL1        0.0000
@<TRIPOS>BOND
     1     1     2     1
     2     1     6     1
     3     1    62     1
     4     1    67     1
     5     2     3     1
     6     2    59     1
     7     2    68     1
     8     3     4     1
     9     3    65     1
    10     3    69     1
    11     4     5     1
    12     4    66     1
    13     4    70     1
    14     5     6     1
    15     5    37     1
    16     5    71     1
    17     7     8     1
    18     7    12     1
    19     7    37     1
    20     7    72     1
    21     8     9     1
    22     8    38     1
    23     8    73     1
    24     9    10     1
    25     9    39     1
    26     9    74     1
    27    10    11     1
    28    10    40     1
    29    10    75     1
    30    11    12     1
    31    11    60     1
    32    11    76     1
    33    13    14     1
    34    13    18     1
    35    13    59     1
    36    13    77     1
    37    14    15     1
    38    15    16     1
    39    15    55     1
    40    15    78     1
    41    16    17     1
    42    16    54     1
    43    16    79     1
    44    17    18     1
    45    17    57     1
    46    17    80     1
    47    18    58     1
    48    18    81     1
    49    19    20     1
    50    19    24     1
    51    19    53     1
    52    19    82     1
    53    20    21     1
    54    20    54     1
    55    20    83     1
    56    21    22     1
    57    22    23     1
    58    22    49     1
    59    22    84     1
    60    23    24     1
    61    23    48     1
    62    23    85     1
    63    24    52     1
    64    24    86     1
    65    25    26     1
    66    25    30     1
    67    25    46     1
    68    25    87     1
    69    26    27     1
    70    26    47     1
    71    26    88     1
    72    27    28     1
    73    27    48     1
    74    27    89     1
    75    28    29     1
    76    29    30     1
    77    29    45     1
    78    29    90     1
    79    30    44     1
    80    30    91     1
    81    31    32     1
    82    31    36     1
    83    31    40     1
    84    31    92     1
    85    32    33     1
    86    32    42     1
    87    32    93     1
    88    33    34     1
    89    33    43     1
    90    33    94     1
    91    34    35     1
    92    34    44     1
    93    34    95     1
    94    35    36     1
    95    36    41     1
    96    36    96     1
    97    38    97     1
    98    39    98     1
    99    41    64     1
   100    41    99     1
   101    41   100     1
   102    42   101     1
   103    43   102     1
   104    45    51     1
   105    45   103     1
   106    45   104     1
   107    46   105     1
   108    47   106     1
   109    49    50     1
   110    49   107     1
   111    49   108     1
   112    50   109     1
   113    51   110     1
   114    52   111     1
   115    53   112     1
   116    55    56     1
   117    55   113     1
   118    55   114     1
   119    56   115     1
   120    57   116     1
   121    58   117     1
   122    60    61     1
   123    60   118     1
   124    60   119     1
   125    61   120     1
   126    62    63     1
   127    62   121     1
   128    62   122     1
   129    63   123     1
   130    64   124     1
   131    65   125     1
   132    66   126     1
