@<TRIPOS>MOLECULE
generated by VMD
126  132    1    0    0
SMALL
NO_CHARGES
****
Energy = 0

@<TRIPOS>ATOM
      1 C          46.3974  284.2697    5.3915 C.3     1  UNL1        0.0000
      2 C          46.5699  283.6392    4.0022 C.3     1  UNL1        0.0000
      3 C          45.2381  283.2465    3.3622 C.3     1  UNL1        0.0000
      4 C          44.1012  283.3862    4.3502 C.3     1  UNL1        0.0000
      5 C          44.1017  284.7746    4.9518 C.3     1  UNL1        0.0000
      6 O          45.3654  285.2168    5.4138 O.3     1  UNL1        0.0000
      7 C          43.1658  286.8902    4.3548 C.3     1  UNL1        0.0000
      8 C          41.7236  286.6813    4.7534 C.3     1  UNL1        0.0000
      9 C          40.9610  287.9966    4.8433 C.3     1  UNL1        0.0000
     10 C          41.1986  288.8659    3.6070 C.3     1  UNL1        0.0000
     11 C          42.6883  288.9335    3.2583 C.3     1  UNL1        0.0000
     12 O          43.2799  287.6687    3.1806 O.3     1  UNL1        0.0000
     13 C          47.4094  284.3858    1.8551 C.3     1  UNL1        0.0000
     14 O          47.4944  283.0290    1.5287 O.3     1  UNL1        0.0000
     15 C          47.2216  282.8013    0.1657 C.3     1  UNL1        0.0000
     16 C          47.7529  283.9531   -0.7056 C.3     1  UNL1        0.0000
     17 C          49.0152  284.5020   -0.0533 C.3     1  UNL1        0.0000
     18 C          48.6270  285.1000    1.2959 C.3     1  UNL1        0.0000
     19 C          47.5323  285.6097   -3.2110 C.3     1  UNL1        0.0000
     20 C          47.2128  284.1484   -3.0202 C.3     1  UNL1        0.0000
     21 O          45.8548  283.9826   -2.6850 O.3     1  UNL1        0.0000
     22 C          44.9647  284.4228   -3.6813 C.3     1  UNL1        0.0000
     23 C          45.2066  285.8916   -4.0723 C.3     1  UNL1        0.0000
     24 C          46.6881  286.1183   -4.3589 C.3     1  UNL1        0.0000
     25 C          42.7499  288.6044   -3.4005 C.3     1  UNL1        0.0000
     26 C          43.3106  288.3402   -4.7804 C.3     1  UNL1        0.0000
     27 C          43.2604  286.8637   -5.1331 C.3     1  UNL1        0.0000
     28 O          42.4662  286.1204   -4.2401 O.3     1  UNL1        0.0000
     29 C          41.2118  286.7190   -4.0538 C.3     1  UNL1        0.0000
     30 C          41.3314  288.0554   -3.3044 C.3     1  UNL1        0.0000
     31 C          40.5567  288.5283    1.2740 C.3     1  UNL1        0.0000
     32 C          40.2135  289.9267    0.7869 C.3     1  UNL1        0.0000
     33 C          40.6408  289.9692   -0.6685 C.3     1  UNL1        0.0000
     34 C          40.0280  288.8311   -1.4592 C.3     1  UNL1        0.0000
     35 O          39.1440  288.0518   -0.6830 O.3     1  UNL1        0.0000
     36 C          39.6975  287.5161    0.4908 C.3     1  UNL1        0.0000
     37 O          43.7489  285.6781    3.9197 O.3     1  UNL1        0.0000
     38 O          41.1168  285.8176    3.8173 O.3     1  UNL1        0.0000
     39 O          41.3528  288.6849    6.0063 O.3     1  UNL1        0.0000
     40 O          40.3315  288.3267    2.6359 O.3     1  UNL1        0.0000
     41 C          38.5430  286.9027    1.2799 C.3     1  UNL1        0.0000
     42 O          40.9087  290.9370    1.4711 O.3     1  UNL1        0.0000
     43 O          40.2681  291.2121   -1.2130 O.3     1  UNL1        0.0000
     44 O          40.9884  287.9154   -1.9504 O.3     1  UNL1        0.0000
     45 C          40.2571  285.7110   -3.4254 C.3     1  UNL1        0.0000
     46 O          42.7509  289.9983   -3.1854 O.3     1  UNL1        0.0000
     47 O          44.6061  288.8845   -4.8502 O.3     1  UNL1        0.0000
     48 O          44.5173  286.2308   -5.2467 O.3     1  UNL1        0.0000
     49 C          44.9272  283.4439   -4.8490 C.3     1  UNL1        0.0000
     50 O          43.6759  283.5283   -5.5050 O.3     1  UNL1        0.0000
     51 O          40.7763  285.2203   -2.2055 O.3     1  UNL1        0.0000
     52 O          46.9590  287.4884   -4.5146 O.3     1  UNL1        0.0000
     53 O          48.8877  285.7805   -3.5456 O.3     1  UNL1        0.0000
     54 O          47.9946  283.5263   -2.0192 O.3     1  UNL1        0.0000
     55 C          47.7876  281.4254   -0.1632 C.3     1  UNL1        0.0000
     56 O          47.2725  280.4887    0.7624 O.3     1  UNL1        0.0000
     57 O          49.6206  285.4963   -0.8416 O.3     1  UNL1        0.0000
     58 O          49.7187  284.9630    2.1736 O.3     1  UNL1        0.0000
     59 O          47.3575  284.5401    3.2559 O.3     1  UNL1        0.0000
     60 C          43.5249  289.8617    4.1351 C.3     1  UNL1        0.0000
     61 O          44.8574  289.8535    3.6575 O.3     1  UNL1        0.0000
     62 C          46.3200  283.3165    6.5826 C.3     1  UNL1        0.0000
     63 O          46.7065  283.9987    7.7607 O.3     1  UNL1        0.0000
     64 O          37.7834  287.9211    1.9000 O.3     1  UNL1        0.0000
     65 O          45.2656  281.9030    2.9319 O.3     1  UNL1        0.0000
     66 O          42.8768  283.1576    3.6871 O.3     1  UNL1        0.0000
     67 H          47.3358  284.8567    5.5800 H       1  UNL1        0.0000
     68 H          47.1943  282.7204    4.1298 H       1  UNL1        0.0000
     69 H          44.9770  283.8618    2.4745 H       1  UNL1        0.0000
     70 H          44.1538  282.5929    5.1256 H       1  UNL1        0.0000
     71 H          43.3727  284.8140    5.7883 H       1  UNL1        0.0000
     72 H          43.7792  287.3345    5.1655 H       1  UNL1        0.0000
     73 H          41.6600  286.1565    5.7348 H       1  UNL1        0.0000
     74 H          39.8707  287.7972    4.9814 H       1  UNL1        0.0000
     75 H          40.8315  289.8982    3.8224 H       1  UNL1        0.0000
     76 H          42.8196  289.3921    2.2500 H       1  UNL1        0.0000
     77 H          46.4794  284.8312    1.4351 H       1  UNL1        0.0000
     78 H          46.1109  282.7511    0.0417 H       1  UNL1        0.0000
     79 H          47.0115  284.7825   -0.7104 H       1  UNL1        0.0000
     80 H          49.7650  283.6842    0.0558 H       1  UNL1        0.0000
     81 H          48.4058  286.1895    1.2194 H       1  UNL1        0.0000
     82 H          47.3428  286.2177   -2.2999 H       1  UNL1        0.0000
     83 H          47.4299  283.5846   -3.9583 H       1  UNL1        0.0000
     84 H          43.9616  284.3665   -3.1878 H       1  UNL1        0.0000
     85 H          44.9152  286.5660   -3.2344 H       1  UNL1        0.0000
     86 H          46.9978  285.6240   -5.3077 H       1  UNL1        0.0000
     87 H          43.4121  288.1545   -2.6247 H       1  UNL1        0.0000
     88 H          42.6976  288.9097   -5.5161 H       1  UNL1        0.0000
     89 H          42.8113  286.7649   -6.1567 H       1  UNL1        0.0000
     90 H          40.7829  286.9278   -5.0692 H       1  UNL1        0.0000
     91 H          40.6542  288.7748   -3.8204 H       1  UNL1        0.0000
     92 H          41.6140  288.2734    1.0373 H       1  UNL1        0.0000
     93 H          39.1294  290.1489    0.9100 H       1  UNL1        0.0000
     94 H          41.7541  289.9374   -0.7205 H       1  UNL1        0.0000
     95 H          39.3880  289.2211   -2.2823 H       1  UNL1        0.0000
     96 H          40.3472  286.6537    0.1998 H       1  UNL1        0.0000
     97 H          41.6717  285.0408    3.6886 H       1  UNL1        0.0000
     98 H          40.6782  289.3186    6.2612 H       1  UNL1        0.0000
     99 H          37.8591  286.3206    0.6206 H       1  UNL1        0.0000
    100 H          38.8990  286.2245    2.0865 H       1  UNL1        0.0000
    101 H          40.7180  291.7686    1.0280 H       1  UNL1        0.0000
    102 H          40.8049  291.3916   -1.9895 H       1  UNL1        0.0000
    103 H          39.2616  286.1680   -3.2216 H       1  UNL1        0.0000
    104 H          40.1206  284.8311   -4.0944 H       1  UNL1        0.0000
    105 H          43.6281  290.3325   -3.3989 H       1  UNL1        0.0000
    106 H          45.2755  288.2205   -5.0122 H       1  UNL1        0.0000
    107 H          45.0370  282.3903   -4.5046 H       1  UNL1        0.0000
    108 H          45.7165  283.6551   -5.6019 H       1  UNL1        0.0000
    109 H          43.4356  284.4508   -5.6255 H       1  UNL1        0.0000
    110 H          40.6888  285.9058   -1.5405 H       1  UNL1        0.0000
    111 H          47.9131  287.6077   -4.5107 H       1  UNL1        0.0000
    112 H          49.4366  285.5705   -2.7873 H       1  UNL1        0.0000
    113 H          48.8974  281.4037   -0.0819 H       1  UNL1        0.0000
    114 H          47.4895  281.0754   -1.1765 H       1  UNL1        0.0000
    115 H          47.5938  279.6098    0.5466 H       1  UNL1        0.0000
    116 H          50.3472  285.8824   -0.3462 H       1  UNL1        0.0000
    117 H          49.4203  285.1075    3.0748 H       1  UNL1        0.0000
    118 H          43.1510  290.9116    4.0839 H       1  UNL1        0.0000
    119 H          43.5721  289.5548    5.2002 H       1  UNL1        0.0000
    120 H          45.1284  288.9356    3.5544 H       1  UNL1        0.0000
    121 H          45.3082  282.9074    6.7844 H       1  UNL1        0.0000
    122 H          47.0279  282.4652    6.4646 H       1  UNL1        0.0000
    123 H          46.6595  283.3960    8.5076 H       1  UNL1        0.0000
    124 H          38.2881  288.2542    2.6474 H       1  UNL1        0.0000
    125 H          45.9364  281.7537    2.2589 H       1  UNL1        0.0000
    126 H          42.9171  282.2963    3.2623 H       1  UNL1        0.0000
@<TRIPOS>BOND
     1     1     2     1
     2     1     6     1
     3     1    62     1
     4     1    67     1
     5     2     3     1
     6     2    59     1
     7     2    68     1
     8     3     4     1
     9     3    65     1
    10     3    69     1
    11     4     5     1
    12     4    66     1
    13     4    70     1
    14     5     6     1
    15     5    37     1
    16     5    71     1
    17     7     8     1
    18     7    12     1
    19     7    37     1
    20     7    72     1
    21     8     9     1
    22     8    38     1
    23     8    73     1
    24     9    10     1
    25     9    39     1
    26     9    74     1
    27    10    11     1
    28    10    40     1
    29    10    75     1
    30    11    12     1
    31    11    60     1
    32    11    76     1
    33    13    14     1
    34    13    18     1
    35    13    59     1
    36    13    77     1
    37    14    15     1
    38    15    16     1
    39    15    55     1
    40    15    78     1
    41    16    17     1
    42    16    54     1
    43    16    79     1
    44    17    18     1
    45    17    57     1
    46    17    80     1
    47    18    58     1
    48    18    81     1
    49    19    20     1
    50    19    24     1
    51    19    53     1
    52    19    82     1
    53    20    21     1
    54    20    54     1
    55    20    83     1
    56    21    22     1
    57    22    23     1
    58    22    49     1
    59    22    84     1
    60    23    24     1
    61    23    48     1
    62    23    85     1
    63    24    52     1
    64    24    86     1
    65    25    26     1
    66    25    30     1
    67    25    46     1
    68    25    87     1
    69    26    27     1
    70    26    47     1
    71    26    88     1
    72    27    28     1
    73    27    48     1
    74    27    89     1
    75    28    29     1
    76    29    30     1
    77    29    45     1
    78    29    90     1
    79    30    44     1
    80    30    91     1
    81    31    32     1
    82    31    36     1
    83    31    40     1
    84    31    92     1
    85    32    33     1
    86    32    42     1
    87    32    93     1
    88    33    34     1
    89    33    43     1
    90    33    94     1
    91    34    35     1
    92    34    44     1
    93    34    95     1
    94    35    36     1
    95    36    41     1
    96    36    96     1
    97    38    97     1
    98    39    98     1
    99    41    64     1
   100    41    99     1
   101    41   100     1
   102    42   101     1
   103    43   102     1
   104    45    51     1
   105    45   103     1
   106    45   104     1
   107    46   105     1
   108    47   106     1
   109    49    50     1
   110    49   107     1
   111    49   108     1
   112    50   109     1
   113    51   110     1
   114    52   111     1
   115    53   112     1
   116    55    56     1
   117    55   113     1
   118    55   114     1
   119    56   115     1
   120    57   116     1
   121    58   117     1
   122    60    61     1
   123    60   118     1
   124    60   119     1
   125    61   120     1
   126    62    63     1
   127    62   121     1
   128    62   122     1
   129    63   123     1
   130    64   124     1
   131    65   125     1
   132    66   126     1
