@<TRIPOS>MOLECULE
generated by VMD
126  132    1    0    0
SMALL
NO_CHARGES
****
Energy = 0

@<TRIPOS>ATOM
      1 C         180.5730   77.0199    5.3915 C.3     1  UNL1        0.0000
      2 C         179.9685   76.7711    4.0022 C.3     1  UNL1        0.0000
      3 C         180.4717   75.4770    3.3622 C.3     1  UNL1        0.0000
      4 C         181.2771   74.6625    4.3502 C.3     1  UNL1        0.0000
      5 C         182.3757   75.5116    4.9518 C.3     1  UNL1        0.0000
      6 O         181.9534   76.7820    5.4138 O.3     1  UNL1        0.0000
      7 C         184.6221   76.0639    4.3548 C.3     1  UNL1        0.0000
      8 C         185.3383   74.7947    4.7534 C.3     1  UNL1        0.0000
      9 C         186.8454   74.9952    4.8433 C.3     1  UNL1        0.0000
     10 C         187.3882   75.7145    3.6070 C.3     1  UNL1        0.0000
     11 C         186.5313   76.9349    3.2583 C.3     1  UNL1        0.0000
     12 O         185.1686   76.6300    3.1806 O.3     1  UNL1        0.0000
     13 C         180.0463   77.8918    1.8551 C.3     1  UNL1        0.0000
     14 O         178.9205   77.1299    1.5287 O.3     1  UNL1        0.0000
     15 C         178.9070   76.7747    0.1657 C.3     1  UNL1        0.0000
     16 C         179.4939   77.8993   -0.7056 C.3     1  UNL1        0.0000
     17 C         179.1568   79.2338   -0.0533 C.3     1  UNL1        0.0000
     18 C         179.8673   79.2920    1.2959 C.3     1  UNL1        0.0000
     19 C         180.9399   78.7372   -3.2110 C.3     1  UNL1        0.0000
     20 C         179.9785   77.5912   -3.0202 C.3     1  UNL1        0.0000
     21 O         180.6774   76.4150   -2.6850 O.3     1  UNL1        0.0000
     22 C         181.5698   75.9796   -3.6813 C.3     1  UNL1        0.0000
     23 C         182.5844   77.0688   -4.0723 C.3     1  UNL1        0.0000
     24 C         181.8584   78.3799   -4.3589 C.3     1  UNL1        0.0000
     25 C         186.2331   76.7825   -3.4005 C.3     1  UNL1        0.0000
     26 C         185.6813   77.0648   -4.7804 C.3     1  UNL1        0.0000
     27 C         184.5434   76.1226   -5.1331 C.3     1  UNL1        0.0000
     28 O         184.4406   75.0397   -4.2401 O.3     1  UNL1        0.0000
     29 C         185.6810   74.4128   -4.0538 C.3     1  UNL1        0.0000
     30 C         186.6656   75.3242   -3.3044 C.3     1  UNL1        0.0000
     31 C         187.5134   75.0001    1.2740 C.3     1  UNL1        0.0000
     32 C         188.8300   75.5832    0.7869 C.3     1  UNL1        0.0000
     33 C         188.6024   75.9474   -0.6685 C.3     1  UNL1        0.0000
     34 C         188.0762   74.7668   -1.4592 C.3     1  UNL1        0.0000
     35 O         187.9997   73.5907   -0.6830 O.3     1  UNL1        0.0000
     36 C         187.2375   73.7014    0.4908 C.3     1  UNL1        0.0000
     37 O         183.3064   75.7846    3.9197 O.3     1  UNL1        0.0000
     38 O         185.0256   73.7866    3.8173 O.3     1  UNL1        0.0000
     39 O         187.1508   75.7259    6.0063 O.3     1  UNL1        0.0000
     40 O         187.4915   74.6987    2.6359 O.3     1  UNL1        0.0000
     41 C         187.4575   72.4128    1.2799 C.3     1  UNL1        0.0000
     42 O         189.2047   76.7510    1.4711 O.3     1  UNL1        0.0000
     43 O         189.8139   76.4121   -1.2130 O.3     1  UNL1        0.0000
     44 O         186.7645   74.9672   -1.9504 O.3     1  UNL1        0.0000
     45 C         185.4667   73.0411   -3.4254 C.3     1  UNL1        0.0000
     46 O         187.3357   77.6353   -3.1854 O.3     1  UNL1        0.0000
     47 O         185.3202   78.4228   -4.8502 O.3     1  UNL1        0.0000
     48 O         183.2742   76.7306   -5.2467 O.3     1  UNL1        0.0000
     49 C         180.8179   75.3516   -4.8490 C.3     1  UNL1        0.0000
     50 O         181.6495   74.4128   -5.5050 O.3     1  UNL1        0.0000
     51 O         184.7610   73.1521   -2.2055 O.3     1  UNL1        0.0000
     52 O         182.7772   79.4317   -4.5146 O.3     1  UNL1        0.0000
     53 O         180.2466   79.9143   -3.5456 O.3     1  UNL1        0.0000
     54 O         179.0084   77.8297   -2.0192 O.3     1  UNL1        0.0000
     55 C         177.4721   76.3818   -0.1632 C.3     1  UNL1        0.0000
     56 O         177.0455   75.4016    0.7624 O.3     1  UNL1        0.0000
     57 O         179.5737   80.3207   -0.8416 O.3     1  UNL1        0.0000
     58 O         179.0916   80.0724    2.1736 O.3     1  UNL1        0.0000
     59 O         180.2002   77.9451    3.2559 O.3     1  UNL1        0.0000
     60 C         186.7546   78.1644    4.1351 C.3     1  UNL1        0.0000
     61 O         185.9336   79.2140    3.6575 O.3     1  UNL1        0.0000
     62 C         179.8658   76.3760    6.5826 C.3     1  UNL1        0.0000
     63 O         180.1695   77.0989    7.7607 O.3     1  UNL1        0.0000
     64 O         188.7279   72.4340    1.9000 O.3     1  UNL1        0.0000
     65 O         179.3916   74.6775    2.9319 O.3     1  UNL1        0.0000
     66 O         181.8446   73.5538    3.6871 O.3     1  UNL1        0.0000
     67 H         180.4640   78.1214    5.5800 H       1  UNL1        0.0000
     68 H         178.8596   76.7037    4.1298 H       1  UNL1        0.0000
     69 H         181.1183   75.6464    2.4745 H       1  UNL1        0.0000
     70 H         180.6171   74.2193    5.1256 H       1  UNL1        0.0000
     71 H         182.8525   74.9587    5.7883 H       1  UNL1        0.0000
     72 H         184.5989   76.8209    5.1655 H       1  UNL1        0.0000
     73 H         184.9618   74.4237    5.7348 H       1  UNL1        0.0000
     74 H         187.3541   74.0103    4.9814 H       1  UNL1        0.0000
     75 H         188.4297   76.0549    3.8224 H       1  UNL1        0.0000
     76 H         186.8140   77.3191    2.2500 H       1  UNL1        0.0000
     77 H         180.9672   77.4281    1.4351 H       1  UNL1        0.0000
     78 H         179.5461   75.8650    0.0417 H       1  UNL1        0.0000
     79 H         180.6034   77.8194   -0.7104 H       1  UNL1        0.0000
     80 H         178.0512   79.3274    0.0558 H       1  UNL1        0.0000
     81 H         180.8649   79.7830    1.2194 H       1  UNL1        0.0000
     82 H         181.5369   78.9589   -2.2999 H       1  UNL1        0.0000
     83 H         179.3996   77.4184   -3.9583 H       1  UNL1        0.0000
     84 H         182.1384   75.1513   -3.1878 H       1  UNL1        0.0000
     85 H         183.2963   77.2504   -3.2344 H       1  UNL1        0.0000
     86 H         181.2779   78.3229   -5.3077 H       1  UNL1        0.0000
     87 H         185.4724   77.0316   -2.6247 H       1  UNL1        0.0000
     88 H         186.5067   76.9277   -5.5161 H       1  UNL1        0.0000
     89 H         184.7397   75.7067   -6.1567 H       1  UNL1        0.0000
     90 H         186.1084   74.2009   -5.0692 H       1  UNL1        0.0000
     91 H         187.6489   75.2280   -3.8204 H       1  UNL1        0.0000
     92 H         186.6654   75.6811    1.0373 H       1  UNL1        0.0000
     93 H         189.6685   74.8610    0.9100 H       1  UNL1        0.0000
     94 H         187.8968   76.8090   -0.7205 H       1  UNL1        0.0000
     95 H         188.7760   74.4986   -2.2823 H       1  UNL1        0.0000
     96 H         186.1577   73.6885    0.1998 H       1  UNL1        0.0000
     97 H         184.0717   73.7510    3.6886 H       1  UNL1        0.0000
     98 H         188.0646   75.5793    6.2612 H       1  UNL1        0.0000
     99 H         187.4148   71.5157    0.6206 H       1  UNL1        0.0000
    100 H         186.7033   72.2800    2.0865 H       1  UNL1        0.0000
    101 H         189.9794   77.1084    1.0280 H       1  UNL1        0.0000
    102 H         189.6279   76.9467   -1.9895 H       1  UNL1        0.0000
    103 H         186.4369   72.5325   -3.2216 H       1  UNL1        0.0000
    104 H         184.8538   72.3952   -4.0944 H       1  UNL1        0.0000
    105 H         187.0641   78.5338   -3.3989 H       1  UNL1        0.0000
    106 H         184.3856   78.5468   -5.0122 H       1  UNL1        0.0000
    107 H         179.9170   74.7944   -4.5046 H       1  UNL1        0.0000
    108 H         180.5027   76.1054   -5.6019 H       1  UNL1        0.0000
    109 H         182.5265   74.7864   -5.6255 H       1  UNL1        0.0000
    110 H         185.3570   73.5018   -1.5405 H       1  UNL1        0.0000
    111 H         182.2884   80.2597   -4.5107 H       1  UNL1        0.0000
    112 H         179.7449   80.2204   -2.7873 H       1  UNL1        0.0000
    113 H         176.7766   77.2468   -0.0819 H       1  UNL1        0.0000
    114 H         177.3773   75.9318   -1.1765 H       1  UNL1        0.0000
    115 H         176.1535   75.1187    0.5466 H       1  UNL1        0.0000
    116 H         179.4352   81.1318   -0.3462 H       1  UNL1        0.0000
    117 H         179.3884   79.9245    3.0748 H       1  UNL1        0.0000
    118 H         187.8140   78.5101    4.0839 H       1  UNL1        0.0000
    119 H         186.4828   78.0141    5.2002 H       1  UNL1        0.0000
    120 H         185.0415   78.8674    3.5544 H       1  UNL1        0.0000
    121 H         180.1605   75.3253    6.7844 H       1  UNL1        0.0000
    122 H         178.7594   76.4161    6.4646 H       1  UNL1        0.0000
    123 H         179.7212   76.6934    8.5076 H       1  UNL1        0.0000
    124 H         188.6830   73.0371    2.6474 H       1  UNL1        0.0000
    125 H         178.8634   75.1172    2.2589 H       1  UNL1        0.0000
    126 H         181.1382   73.0592    3.2623 H       1  UNL1        0.0000
@<TRIPOS>BOND
     1     1     2     1
     2     1     6     1
     3     1    62     1
     4     1    67     1
     5     2     3     1
     6     2    59     1
     7     2    68     1
     8     3     4     1
     9     3    65     1
    10     3    69     1
    11     4     5     1
    12     4    66     1
    13     4    70     1
    14     5     6     1
    15     5    37     1
    16     5    71     1
    17     7     8     1
    18     7    12     1
    19     7    37     1
    20     7    72     1
    21     8     9     1
    22     8    38     1
    23     8    73     1
    24     9    10     1
    25     9    39     1
    26     9    74     1
    27    10    11     1
    28    10    40     1
    29    10    75     1
    30    11    12     1
    31    11    60     1
    32    11    76     1
    33    13    14     1
    34    13    18     1
    35    13    59     1
    36    13    77     1
    37    14    15     1
    38    15    16     1
    39    15    55     1
    40    15    78     1
    41    16    17     1
    42    16    54     1
    43    16    79     1
    44    17    18     1
    45    17    57     1
    46    17    80     1
    47    18    58     1
    48    18    81     1
    49    19    20     1
    50    19    24     1
    51    19    53     1
    52    19    82     1
    53    20    21     1
    54    20    54     1
    55    20    83     1
    56    21    22     1
    57    22    23     1
    58    22    49     1
    59    22    84     1
    60    23    24     1
    61    23    48     1
    62    23    85     1
    63    24    52     1
    64    24    86     1
    65    25    26     1
    66    25    30     1
    67    25    46     1
    68    25    87     1
    69    26    27     1
    70    26    47     1
    71    26    88     1
    72    27    28     1
    73    27    48     1
    74    27    89     1
    75    28    29     1
    76    29    30     1
    77    29    45     1
    78    29    90     1
    79    30    44     1
    80    30    91     1
    81    31    32     1
    82    31    36     1
    83    31    40     1
    84    31    92     1
    85    32    33     1
    86    32    42     1
    87    32    93     1
    88    33    34     1
    89    33    43     1
    90    33    94     1
    91    34    35     1
    92    34    44     1
    93    34    95     1
    94    35    36     1
    95    36    41     1
    96    36    96     1
    97    38    97     1
    98    39    98     1
    99    41    64     1
   100    41    99     1
   101    41   100     1
   102    42   101     1
   103    43   102     1
   104    45    51     1
   105    45   103     1
   106    45   104     1
   107    46   105     1
   108    47   106     1
   109    49    50     1
   110    49   107     1
   111    49   108     1
   112    50   109     1
   113    51   110     1
   114    52   111     1
   115    53   112     1
   116    55    56     1
   117    55   113     1
   118    55   114     1
   119    56   115     1
   120    57   116     1
   121    58   117     1
   122    60    61     1
   123    60   118     1
   124    60   119     1
   125    61   120     1
   126    62    63     1
   127    62   121     1
   128    62   122     1
   129    63   123     1
   130    64   124     1
   131    65   125     1
   132    66   126     1
