@<TRIPOS>MOLECULE
generated by VMD
126  132    1    0    0
SMALL
NO_CHARGES
****
Energy = 0

@<TRIPOS>ATOM
      1 C          96.0648  308.1340   -5.3915 C.3     1  UNL1        0.0000
      2 C          95.4120  308.1007   -4.0022 C.3     1  UNL1        0.0000
      3 C          95.3139  309.4857   -3.3622 C.3     1  UNL1        0.0000
      4 C          95.6939  310.5662   -4.3502 C.3     1  UNL1        0.0000
      5 C          97.0500  310.2681   -4.9518 C.3     1  UNL1        0.0000
      6 O          97.2111  308.9391   -5.4138 O.3     1  UNL1        0.0000
      7 C          99.3170  310.7289   -4.3548 C.3     1  UNL1        0.0000
      8 C          99.4221  312.1824   -4.7534 C.3     1  UNL1        0.0000
      9 C         100.8703  312.6453   -4.8433 C.3     1  UNL1        0.0000
     10 C         101.6684  312.2269   -3.6070 C.3     1  UNL1        0.0000
     11 C         101.4152  310.7574   -3.2583 C.3     1  UNL1        0.0000
     12 O         100.0530  310.4506   -3.1806 O.3     1  UNL1        0.0000
     13 C          95.9613  307.1207   -1.8551 C.3     1  UNL1        0.0000
     14 O          94.6178  307.3284   -1.5287 O.3     1  UNL1        0.0000
     15 C          94.4538  307.6437   -0.1657 C.3     1  UNL1        0.0000
     16 C          95.4651  306.8779    0.7056 C.3     1  UNL1        0.0000
     17 C          95.7306  305.5273    0.0533 C.3     1  UNL1        0.0000
     18 C          96.3979  305.7783   -1.2959 C.3     1  UNL1        0.0000
     19 C          97.1304  306.7383    3.2110 C.3     1  UNL1        0.0000
     20 C          95.7715  307.3635    3.0202 C.3     1  UNL1        0.0000
     21 O          95.9006  308.7256    2.6850 O.3     1  UNL1        0.0000
     22 C          96.5214  309.5006    3.6813 C.3     1  UNL1        0.0000
     23 C          97.9042  308.9495    4.0723 C.3     1  UNL1        0.0000
     24 C          97.8081  307.4539    4.3589 C.3     1  UNL1        0.0000
     25 C         101.0805  310.7677    3.4005 C.3     1  UNL1        0.0000
     26 C         100.7023  310.2766    4.7804 C.3     1  UNL1        0.0000
     27 C          99.2709  310.6422    5.1331 C.3     1  UNL1        0.0000
     28 O          98.7151  311.5772    4.2401 O.3     1  UNL1        0.0000
     29 C          99.5686  312.6741    4.0538 C.3     1  UNL1        0.0000
     30 C         100.8483  312.2709    3.3044 C.3     1  UNL1        0.0000
     31 C         101.4763  312.9263   -1.2740 C.3     1  UNL1        0.0000
     32 C         102.9157  312.9618   -0.7869 C.3     1  UNL1        0.0000
     33 C         102.8657  312.5353    0.6685 C.3     1  UNL1        0.0000
     34 C         101.8853  313.3777    1.4592 C.3     1  UNL1        0.0000
     35 O         101.3136  314.4083    0.6830 O.3     1  UNL1        0.0000
     36 C         100.6718  313.9824   -0.4908 C.3     1  UNL1        0.0000
     37 O          98.0081  310.4191   -3.9197 O.3     1  UNL1        0.0000
     38 O          98.7085  312.9601   -3.8173 O.3     1  UNL1        0.0000
     39 O         101.4586  312.1151   -6.0063 O.3     1  UNL1        0.0000
     40 O         101.3277  313.1894   -2.6359 O.3     1  UNL1        0.0000
     41 C         100.3200  315.2415   -1.2799 C.3     1  UNL1        0.0000
     42 O         103.7536  312.0661   -1.4711 O.3     1  UNL1        0.0000
     43 O         104.1596  312.6329    1.2130 O.3     1  UNL1        0.0000
     44 O         100.7851  312.6360    1.9504 O.3     1  UNL1        0.0000
     45 C          98.7887  313.8227    3.4254 C.3     1  UNL1        0.0000
     46 O         102.4418  310.4680    3.1854 O.3     1  UNL1        0.0000
     47 O         100.9563  308.8946    4.8502 O.3     1  UNL1        0.0000
     48 O          98.3832  309.5501    5.2467 O.3     1  UNL1        0.0000
     49 C          95.5733  309.7470    4.8490 C.3     1  UNL1        0.0000
     50 O          95.9239  310.9511    5.5050 O.3     1  UNL1        0.0000
     51 O          98.1981  313.4207    2.2055 O.3     1  UNL1        0.0000
     52 O          99.0883  306.8956    4.5146 O.3     1  UNL1        0.0000
     53 O          97.0067  305.3778    3.5456 O.3     1  UNL1        0.0000
     54 O          94.9963  306.7333    2.0192 O.3     1  UNL1        0.0000
     55 C          92.9887  307.3857    0.1632 C.3     1  UNL1        0.0000
     56 O          92.1841  308.0896   -0.7624 O.3     1  UNL1        0.0000
     57 O          96.5721  304.7228    0.8416 O.3     1  UNL1        0.0000
     58 O          96.0301  304.7413   -2.1736 O.3     1  UNL1        0.0000
     59 O          96.1232  307.1383   -3.2559 O.3     1  UNL1        0.0000
     60 C         102.1425  309.7412   -4.1351 C.3     1  UNL1        0.0000
     61 O         101.8489  308.4414   -3.6575 O.3     1  UNL1        0.0000
     62 C          95.1503  308.4139   -6.5826 C.3     1  UNL1        0.0000
     63 O          95.7338  307.8902   -7.7607 O.3     1  UNL1        0.0000
     64 O         101.4775  315.7653   -1.9000 O.3     1  UNL1        0.0000
     65 O          93.9956  309.7468   -2.9319 O.3     1  UNL1        0.0000
     66 O          95.7331  311.8111   -3.6871 O.3     1  UNL1        0.0000
     67 H          96.4371  307.0916   -5.5800 H       1  UNL1        0.0000
     68 H          94.3807  307.6877   -4.1298 H       1  UNL1        0.0000
     69 H          95.9709  309.6089   -2.4745 H       1  UNL1        0.0000
     70 H          94.9078  310.6849   -5.1256 H       1  UNL1        0.0000
     71 H          97.2448  310.9717   -5.7883 H       1  UNL1        0.0000
     72 H          99.6195  310.0345   -5.1655 H       1  UNL1        0.0000
     73 H          98.9231  312.3569   -5.7348 H       1  UNL1        0.0000
     74 H         100.9092  313.7530   -4.9814 H       1  UNL1        0.0000
     75 H         102.7555  312.3642   -3.8224 H       1  UNL1        0.0000
     76 H         101.8350  310.5308   -2.2500 H       1  UNL1        0.0000
     77 H          96.5957  307.9335   -1.4351 H       1  UNL1        0.0000
     78 H          94.6429  308.7393   -0.0417 H       1  UNL1        0.0000
     79 H          96.4340  307.4242    0.7104 H       1  UNL1        0.0000
     80 H          94.7711  304.9702   -0.0558 H       1  UNL1        0.0000
     81 H          97.5096  305.7608   -1.2194 H       1  UNL1        0.0000
     82 H          97.7649  306.7930    2.2999 H       1  UNL1        0.0000
     83 H          95.1743  307.2723    3.9583 H       1  UNL1        0.0000
     84 H          96.6814  310.4924    3.1878 H       1  UNL1        0.0000
     85 H          98.6254  309.0896    3.2344 H       1  UNL1        0.0000
     86 H          97.2590  307.2573    5.3077 H       1  UNL1        0.0000
     87 H         100.4992  310.2173    2.6247 H       1  UNL1        0.0000
     88 H         101.3900  310.7533    5.5161 H       1  UNL1        0.0000
     89 H          99.2706  311.1020    6.1567 H       1  UNL1        0.0000
     90 H          99.8644  313.0484    5.0692 H       1  UNL1        0.0000
     91 H         101.6961  312.7782    3.8204 H       1  UNL1        0.0000
     92 H         101.0006  311.9482   -1.0373 H       1  UNL1        0.0000
     93 H         103.3651  313.9731   -0.9100 H       1  UNL1        0.0000
     94 H         102.5959  311.4547    0.7205 H       1  UNL1        0.0000
     95 H         102.4034  313.9193    2.2823 H       1  UNL1        0.0000
     96 H          99.6901  313.5326   -0.1998 H       1  UNL1        0.0000
     97 H          97.8308  312.5847   -3.6886 H       1  UNL1        0.0000
     98 H         102.2221  312.6382   -6.2612 H       1  UNL1        0.0000
     99 H          99.8980  316.0343   -0.6206 H       1  UNL1        0.0000
    100 H          99.5813  315.0392   -2.0865 H       1  UNL1        0.0000
    101 H         104.6067  312.0742   -1.0280 H       1  UNL1        0.0000
    102 H         104.2198  312.0701    1.9895 H       1  UNL1        0.0000
    103 H          99.4484  314.6971    3.2216 H       1  UNL1        0.0000
    104 H          97.9585  314.1447    4.0944 H       1  UNL1        0.0000
    105 H         102.5803  309.5395    3.3989 H       1  UNL1        0.0000
    106 H         100.1643  308.3831    5.0122 H       1  UNL1        0.0000
    107 H          94.5206  309.8657    4.5046 H       1  UNL1        0.0000
    108 H          95.6105  308.9308    5.6019 H       1  UNL1        0.0000
    109 H          96.8764  310.9882    5.6255 H       1  UNL1        0.0000
    110 H          98.8864  313.3592    1.5405 H       1  UNL1        0.0000
    111 H          99.0003  305.9381    4.5107 H       1  UNL1        0.0000
    112 H          96.6839  304.8867    2.7873 H       1  UNL1        0.0000
    113 H          92.7296  306.3064    0.0819 H       1  UNL1        0.0000
    114 H          92.7106  307.7520    1.1765 H       1  UNL1        0.0000
    115 H          91.2567  307.9641   -0.5466 H       1  UNL1        0.0000
    116 H          96.7935  303.9304    0.3462 H       1  UNL1        0.0000
    117 H          96.2352  305.0018   -3.0748 H       1  UNL1        0.0000
    118 H         103.2481  309.8814   -4.0839 H       1  UNL1        0.0000
    119 H         101.8326  309.7609   -5.2002 H       1  UNL1        0.0000
    120 H         100.8942  308.3735   -3.5544 H       1  UNL1        0.0000
    121 H          94.9676  309.4898   -6.7844 H       1  UNL1        0.0000
    122 H          94.1671  307.9049   -6.4646 H       1  UNL1        0.0000
    123 H          95.1552  308.0652   -8.5076 H       1  UNL1        0.0000
    124 H         101.6947  315.2009   -2.6474 H       1  UNL1        0.0000
    125 H          93.7061  309.1236   -2.2589 H       1  UNL1        0.0000
    126 H          94.8832  311.9564   -3.2623 H       1  UNL1        0.0000
@<TRIPOS>BOND
     1     1     2     1
     2     1     6     1
     3     1    62     1
     4     1    67     1
     5     2     3     1
     6     2    59     1
     7     2    68     1
     8     3     4     1
     9     3    65     1
    10     3    69     1
    11     4     5     1
    12     4    66     1
    13     4    70     1
    14     5     6     1
    15     5    37     1
    16     5    71     1
    17     7     8     1
    18     7    12     1
    19     7    37     1
    20     7    72     1
    21     8     9     1
    22     8    38     1
    23     8    73     1
    24     9    10     1
    25     9    39     1
    26     9    74     1
    27    10    11     1
    28    10    40     1
    29    10    75     1
    30    11    12     1
    31    11    60     1
    32    11    76     1
    33    13    14     1
    34    13    18     1
    35    13    59     1
    36    13    77     1
    37    14    15     1
    38    15    16     1
    39    15    55     1
    40    15    78     1
    41    16    17     1
    42    16    54     1
    43    16    79     1
    44    17    18     1
    45    17    57     1
    46    17    80     1
    47    18    58     1
    48    18    81     1
    49    19    20     1
    50    19    24     1
    51    19    53     1
    52    19    82     1
    53    20    21     1
    54    20    54     1
    55    20    83     1
    56    21    22     1
    57    22    23     1
    58    22    49     1
    59    22    84     1
    60    23    24     1
    61    23    48     1
    62    23    85     1
    63    24    52     1
    64    24    86     1
    65    25    26     1
    66    25    30     1
    67    25    46     1
    68    25    87     1
    69    26    27     1
    70    26    47     1
    71    26    88     1
    72    27    28     1
    73    27    48     1
    74    27    89     1
    75    28    29     1
    76    29    30     1
    77    29    45     1
    78    29    90     1
    79    30    44     1
    80    30    91     1
    81    31    32     1
    82    31    36     1
    83    31    40     1
    84    31    92     1
    85    32    33     1
    86    32    42     1
    87    32    93     1
    88    33    34     1
    89    33    43     1
    90    33    94     1
    91    34    35     1
    92    34    44     1
    93    34    95     1
    94    35    36     1
    95    36    41     1
    96    36    96     1
    97    38    97     1
    98    39    98     1
    99    41    64     1
   100    41    99     1
   101    41   100     1
   102    42   101     1
   103    43   102     1
   104    45    51     1
   105    45   103     1
   106    45   104     1
   107    46   105     1
   108    47   106     1
   109    49    50     1
   110    49   107     1
   111    49   108     1
   112    50   109     1
   113    51   110     1
   114    52   111     1
   115    53   112     1
   116    55    56     1
   117    55   113     1
   118    55   114     1
   119    56   115     1
   120    57   116     1
   121    58   117     1
   122    60    61     1
   123    60   118     1
   124    60   119     1
   125    61   120     1
   126    62    63     1
   127    62   121     1
   128    62   122     1
   129    63   123     1
   130    64   124     1
   131    65   125     1
   132    66   126     1
