@<TRIPOS>MOLECULE
generated by VMD
126  132    1    0    0
SMALL
NO_CHARGES
****
Energy = 0

@<TRIPOS>ATOM
      1 C          47.0147  209.3820   -5.3915 C.3     1  UNL1        0.0000
      2 C          47.4701  208.9130   -4.0022 C.3     1  UNL1        0.0000
      3 C          46.4929  207.9265   -3.3622 C.3     1  UNL1        0.0000
      4 C          45.4297  207.5003   -4.3502 C.3     1  UNL1        0.0000
      5 C          44.7604  208.7167   -4.9518 C.3     1  UNL1        0.0000
      6 O          45.6539  209.7138   -5.4138 O.3     1  UNL1        0.0000
      7 C          42.9199  210.1183   -4.3548 C.3     1  UNL1        0.0000
      8 C          41.7574  209.2395   -4.7534 C.3     1  UNL1        0.0000
      9 C          40.4549  210.0238   -4.8433 C.3     1  UNL1        0.0000
     10 C          40.2436  210.8998   -3.6070 C.3     1  UNL1        0.0000
     11 C          41.5158  211.6777   -3.2583 C.3     1  UNL1        0.0000
     12 O          42.6442  210.8553   -3.1806 O.3     1  UNL1        0.0000
     13 C          47.8452  209.9719   -1.8551 C.3     1  UNL1        0.0000
     14 O          48.5743  208.8245   -1.5287 O.3     1  UNL1        0.0000
     15 C          48.4451  208.4934   -0.1657 C.3     1  UNL1        0.0000
     16 C          48.3548  209.7587    0.7056 C.3     1  UNL1        0.0000
     17 C          49.1957  210.8484    0.0533 C.3     1  UNL1        0.0000
     18 C          48.5672  211.1849   -1.2959 C.3     1  UNL1        0.0000
     19 C          47.3624  211.1033    3.2110 C.3     1  UNL1        0.0000
     20 C          47.7876  209.6692    3.0202 C.3     1  UNL1        0.0000
     21 O          46.6780  208.8687    2.6850 O.3     1  UNL1        0.0000
     22 C          45.6860  208.8249    3.6813 C.3     1  UNL1        0.0000
     23 C          45.1893  210.2282    4.0723 C.3     1  UNL1        0.0000
     24 C          46.3776  211.1415    4.3589 C.3     1  UNL1        0.0000
     25 C          41.7286  211.4192    3.4005 C.3     1  UNL1        0.0000
     26 C          42.3472  211.4583    4.7804 C.3     1  UNL1        0.0000
     27 C          43.0155  210.1407    5.1331 C.3     1  UNL1        0.0000
     28 O          42.6784  209.1065    4.2401 O.3     1  UNL1        0.0000
     29 C          41.2910  209.0257    4.0538 C.3     1  UNL1        0.0000
     30 C          40.7509  210.2539    3.3044 C.3     1  UNL1        0.0000
     31 C          39.8442  210.2944   -1.2740 C.3     1  UNL1        0.0000
     32 C          38.8689  211.3538   -0.7869 C.3     1  UNL1        0.0000
     33 C          39.2227  211.5972    0.6685 C.3     1  UNL1        0.0000
     34 C          39.2351  210.3046    1.4592 C.3     1  UNL1        0.0000
     35 O          38.8367  209.1955    0.6830 O.3     1  UNL1        0.0000
     36 C          39.5799  208.9933   -0.4908 C.3     1  UNL1        0.0000
     37 O          44.0154  209.3380   -3.9197 O.3     1  UNL1        0.0000
     38 O          41.6426  208.1903   -3.8173 O.3     1  UNL1        0.0000
     39 O          40.4660  210.8157   -6.0063 O.3     1  UNL1        0.0000
     40 O          39.7442  210.0093   -2.6359 O.3     1  UNL1        0.0000
     41 C          38.8647  207.8990   -1.2799 C.3     1  UNL1        0.0000
     42 O          38.9905  212.5742   -1.4711 O.3     1  UNL1        0.0000
     43 O          38.2966  212.5060    1.2130 O.3     1  UNL1        0.0000
     44 O          40.5180  209.9658    1.9504 O.3     1  UNL1        0.0000
     45 C          40.9410  207.6822    3.4254 C.3     1  UNL1        0.0000
     46 O          41.0570  212.6407    3.1854 O.3     1  UNL1        0.0000
     47 O          43.2194  212.5601    4.8502 O.3     1  UNL1        0.0000
     48 O          44.4219  210.1928    5.2467 O.3     1  UNL1        0.0000
     49 C          46.1254  207.9494    4.8490 C.3     1  UNL1        0.0000
     50 O          44.9887  207.4197    5.5050 O.3     1  UNL1        0.0000
     51 O          41.6325  207.5029    2.2055 O.3     1  UNL1        0.0000
     52 O          45.9538  212.4723    4.5146 O.3     1  UNL1        0.0000
     53 O          48.4673  211.9068    3.5456 O.3     1  UNL1        0.0000
     54 O          48.7724  209.5014    2.0192 O.3     1  UNL1        0.0000
     55 C          49.6047  207.5614    0.1632 C.3     1  UNL1        0.0000
     56 O          49.6054  206.4924   -0.7624 O.3     1  UNL1        0.0000
     57 O          49.2463  212.0115    0.8416 O.3     1  UNL1        0.0000
     58 O          49.5895  211.5916   -2.1736 O.3     1  UNL1        0.0000
     59 O          47.7253  210.0821   -3.2559 O.3     1  UNL1        0.0000
     60 C          41.8009  212.8944   -4.1351 C.3     1  UNL1        0.0000
     61 O          42.9720  213.5300   -3.6575 O.3     1  UNL1        0.0000
     62 C          47.4069  208.5097   -6.5826 C.3     1  UNL1        0.0000
     63 O          47.4163  209.2938   -7.7607 O.3     1  UNL1        0.0000
     64 O          37.7080  208.4246   -1.9000 O.3     1  UNL1        0.0000
     65 O          47.1652  206.7629   -2.9319 O.3     1  UNL1        0.0000
     66 O          44.4675  206.7095   -3.6871 O.3     1  UNL1        0.0000
     67 H          47.5535  210.3489   -5.5800 H       1  UNL1        0.0000
     68 H          48.4603  208.4094   -4.1298 H       1  UNL1        0.0000
     69 H          45.9674  208.3395   -2.4745 H       1  UNL1        0.0000
     70 H          45.8585  206.8308   -5.1256 H       1  UNL1        0.0000
     71 H          44.1028  208.3996   -5.7883 H       1  UNL1        0.0000
     72 H          43.2428  210.8034   -5.1655 H       1  UNL1        0.0000
     73 H          41.9549  208.7492   -5.7348 H       1  UNL1        0.0000
     74 H          39.5960  209.3231   -4.9814 H       1  UNL1        0.0000
     75 H          39.4240  211.6270   -3.8224 H       1  UNL1        0.0000
     76 H          41.4096  212.1428   -2.2500 H       1  UNL1        0.0000
     77 H          46.8157  209.9135   -1.4351 H       1  UNL1        0.0000
     78 H          47.4965  207.9136   -0.0417 H       1  UNL1        0.0000
     79 H          47.3053  210.1275    0.7104 H       1  UNL1        0.0000
     80 H          50.2470  210.4938   -0.0558 H       1  UNL1        0.0000
     81 H          47.8478  212.0326   -1.2194 H       1  UNL1        0.0000
     82 H          46.9031  211.5444    2.2999 H       1  UNL1        0.0000
     83 H          48.2497  209.2800    3.9583 H       1  UNL1        0.0000
     84 H          44.8345  208.2917    3.1878 H       1  UNL1        0.0000
     85 H          44.6087  210.6784    3.2344 H       1  UNL1        0.0000
     86 H          46.8873  210.8580    5.3077 H       1  UNL1        0.0000
     87 H          42.5256  211.3446    2.6247 H       1  UNL1        0.0000
     88 H          41.5355  211.6614    5.5161 H       1  UNL1        0.0000
     89 H          42.6698  209.8375    6.1567 H       1  UNL1        0.0000
     90 H          40.8145  209.0016    5.0692 H       1  UNL1        0.0000
     91 H          39.8107  210.5574    3.8204 H       1  UNL1        0.0000
     92 H          40.8933  210.5812   -1.0373 H       1  UNL1        0.0000
     93 H          37.8121  211.0254   -0.9100 H       1  UNL1        0.0000
     94 H          40.2132  212.1063    0.7205 H       1  UNL1        0.0000
     95 H          38.4863  210.3375    2.2823 H       1  UNL1        0.0000
     96 H          40.5651  208.5513   -0.1998 H       1  UNL1        0.0000
     97 H          42.5034  207.7776   -3.6886 H       1  UNL1        0.0000
     98 H          39.5694  211.0453   -6.2612 H       1  UNL1        0.0000
     99 H          38.5465  207.0592   -0.6206 H       1  UNL1        0.0000
    100 H          39.5036  207.4767   -2.0865 H       1  UNL1        0.0000
    101 H          38.4223  213.2106   -1.0280 H       1  UNL1        0.0000
    102 H          38.6803  212.9222    1.9895 H       1  UNL1        0.0000
    103 H          39.8485  207.6022    3.2216 H       1  UNL1        0.0000
    104 H          41.2459  206.8456    4.0944 H       1  UNL1        0.0000
    105 H          41.6641  213.3566    3.3989 H       1  UNL1        0.0000
    106 H          44.1260  212.3014    5.0122 H       1  UNL1        0.0000
    107 H          46.7299  207.0794    4.5046 H       1  UNL1        0.0000
    108 H          46.7148  208.5152    5.6019 H       1  UNL1        0.0000
    109 H          44.3331  208.1117    5.6255 H       1  UNL1        0.0000
    110 H          41.2252  208.0611    1.5405 H       1  UNL1        0.0000
    111 H          46.7320  213.0371    4.5107 H       1  UNL1        0.0000
    112 H          49.0494  211.9876    2.7873 H       1  UNL1        0.0000
    113 H          50.5872  208.0777    0.0819 H       1  UNL1        0.0000
    114 H          49.5124  207.1109    1.1765 H       1  UNL1        0.0000
    115 H          50.3109  205.8775   -0.5466 H       1  UNL1        0.0000
    116 H          49.6965  212.7002    0.3462 H       1  UNL1        0.0000
    117 H          49.2584  211.5742   -3.0748 H       1  UNL1        0.0000
    118 H          40.9668  213.6336   -4.0839 H       1  UNL1        0.0000
    119 H          41.9903  212.6484   -5.2002 H       1  UNL1        0.0000
    120 H          43.6522  212.8568   -3.5544 H       1  UNL1        0.0000
    121 H          46.7180  207.6633   -6.7844 H       1  UNL1        0.0000
    122 H          48.4376  208.1056   -6.4646 H       1  UNL1        0.0000
    123 H          47.6659  208.7432   -8.5076 H       1  UNL1        0.0000
    124 H          37.9894  208.9599   -2.6474 H       1  UNL1        0.0000
    125 H          47.8248  206.9558   -2.2589 H       1  UNL1        0.0000
    126 H          44.9184  205.9744   -3.2623 H       1  UNL1        0.0000
@<TRIPOS>BOND
     1     1     2     1
     2     1     6     1
     3     1    62     1
     4     1    67     1
     5     2     3     1
     6     2    59     1
     7     2    68     1
     8     3     4     1
     9     3    65     1
    10     3    69     1
    11     4     5     1
    12     4    66     1
    13     4    70     1
    14     5     6     1
    15     5    37     1
    16     5    71     1
    17     7     8     1
    18     7    12     1
    19     7    37     1
    20     7    72     1
    21     8     9     1
    22     8    38     1
    23     8    73     1
    24     9    10     1
    25     9    39     1
    26     9    74     1
    27    10    11     1
    28    10    40     1
    29    10    75     1
    30    11    12     1
    31    11    60     1
    32    11    76     1
    33    13    14     1
    34    13    18     1
    35    13    59     1
    36    13    77     1
    37    14    15     1
    38    15    16     1
    39    15    55     1
    40    15    78     1
    41    16    17     1
    42    16    54     1
    43    16    79     1
    44    17    18     1
    45    17    57     1
    46    17    80     1
    47    18    58     1
    48    18    81     1
    49    19    20     1
    50    19    24     1
    51    19    53     1
    52    19    82     1
    53    20    21     1
    54    20    54     1
    55    20    83     1
    56    21    22     1
    57    22    23     1
    58    22    49     1
    59    22    84     1
    60    23    24     1
    61    23    48     1
    62    23    85     1
    63    24    52     1
    64    24    86     1
    65    25    26     1
    66    25    30     1
    67    25    46     1
    68    25    87     1
    69    26    27     1
    70    26    47     1
    71    26    88     1
    72    27    28     1
    73    27    48     1
    74    27    89     1
    75    28    29     1
    76    29    30     1
    77    29    45     1
    78    29    90     1
    79    30    44     1
    80    30    91     1
    81    31    32     1
    82    31    36     1
    83    31    40     1
    84    31    92     1
    85    32    33     1
    86    32    42     1
    87    32    93     1
    88    33    34     1
    89    33    43     1
    90    33    94     1
    91    34    35     1
    92    34    44     1
    93    34    95     1
    94    35    36     1
    95    36    41     1
    96    36    96     1
    97    38    97     1
    98    39    98     1
    99    41    64     1
   100    41    99     1
   101    41   100     1
   102    42   101     1
   103    43   102     1
   104    45    51     1
   105    45   103     1
   106    45   104     1
   107    46   105     1
   108    47   106     1
   109    49    50     1
   110    49   107     1
   111    49   108     1
   112    50   109     1
   113    51   110     1
   114    52   111     1
   115    53   112     1
   116    55    56     1
   117    55   113     1
   118    55   114     1
   119    56   115     1
   120    57   116     1
   121    58   117     1
   122    60    61     1
   123    60   118     1
   124    60   119     1
   125    61   120     1
   126    62    63     1
   127    62   121     1
   128    62   122     1
   129    63   123     1
   130    64   124     1
   131    65   125     1
   132    66   126     1
