@<TRIPOS>MOLECULE
generated by VMD
126  132    1    0    0
SMALL
NO_CHARGES
****
Energy = 0

@<TRIPOS>ATOM
      1 C         108.1885   83.0138   -5.3915 C.3     1  UNL1        0.0000
      2 C         107.5391   82.9386   -4.0022 C.3     1  UNL1        0.0000
      3 C         107.3524   84.3145   -3.3622 C.3     1  UNL1        0.0000
      4 C         107.6624   85.4172   -4.3502 C.3     1  UNL1        0.0000
      5 C         109.0347   85.2067   -4.9518 C.3     1  UNL1        0.0000
      6 O         109.2808   83.8907   -5.4138 O.3     1  UNL1        0.0000
      7 C         111.2675   85.8118   -4.3548 C.3     1  UNL1        0.0000
      8 C         111.2792   87.2691   -4.7534 C.3     1  UNL1        0.0000
      9 C         112.6947   87.8239   -4.8433 C.3     1  UNL1        0.0000
     10 C         113.5181   87.4575   -3.6070 C.3     1  UNL1        0.0000
     11 C         113.3596   85.9748   -3.2583 C.3     1  UNL1        0.0000
     12 O         112.0199   85.5813   -3.1806 O.3     1  UNL1        0.0000
     13 C         108.1501   81.9959   -1.8551 C.3     1  UNL1        0.0000
     14 O         106.7961   82.1170   -1.5287 O.3     1  UNL1        0.0000
     15 C         106.6122   82.4212   -0.1657 C.3     1  UNL1        0.0000
     16 C         107.6705   81.7217    0.7056 C.3     1  UNL1        0.0000
     17 C         108.0221   80.3910    0.0533 C.3     1  UNL1        0.0000
     18 C         108.6719   80.6843   -1.2959 C.3     1  UNL1        0.0000
     19 C         109.3414   81.6892    3.2110 C.3     1  UNL1        0.0000
     20 C         107.9452   82.2261    3.0202 C.3     1  UNL1        0.0000
     21 O         107.9867   83.5936    2.6850 O.3     1  UNL1        0.0000
     22 C         108.5565   84.4068    3.6813 C.3     1  UNL1        0.0000
     23 C         109.9718   83.9455    4.0723 C.3     1  UNL1        0.0000
     24 C         109.9718   82.4468    4.3589 C.3     1  UNL1        0.0000
     25 C         113.0249   85.9636    3.4005 C.3     1  UNL1        0.0000
     26 C         112.6790   85.4493    4.7804 C.3     1  UNL1        0.0000
     27 C         111.2271   85.7224    5.1331 C.3     1  UNL1        0.0000
     28 O         110.6125   86.6198    4.2401 O.3     1  UNL1        0.0000
     29 C         111.3939   87.7692    4.0538 C.3     1  UNL1        0.0000
     30 C         112.6968   87.4489    3.3044 C.3     1  UNL1        0.0000
     31 C         113.2815   88.1431   -1.2740 C.3     1  UNL1        0.0000
     32 C         114.7157   88.2709   -0.7869 C.3     1  UNL1        0.0000
     33 C         114.6931   87.8421    0.6685 C.3     1  UNL1        0.0000
     34 C         113.6607   88.6199    1.4592 C.3     1  UNL1        0.0000
     35 O         113.0241   89.6117    0.6830 O.3     1  UNL1        0.0000
     36 C         112.4109   89.1456   -0.4908 C.3     1  UNL1        0.0000
     37 O         109.9812   85.4187   -3.9197 O.3     1  UNL1        0.0000
     38 O         110.5172   87.9995   -3.8173 O.3     1  UNL1        0.0000
     39 O         113.3159   87.3325   -6.0063 O.3     1  UNL1        0.0000
     40 O         113.1163   88.3962   -2.6359 O.3     1  UNL1        0.0000
     41 C         111.9791   90.3795   -1.2799 C.3     1  UNL1        0.0000
     42 O         115.6092   87.4308   -1.4711 O.3     1  UNL1        0.0000
     43 O         115.9780   88.0225    1.2130 O.3     1  UNL1        0.0000
     44 O         112.6103   87.8091    1.9504 O.3     1  UNL1        0.0000
     45 C         110.5419   88.8654    3.4254 C.3     1  UNL1        0.0000
     46 O         114.4027   85.7518    3.1854 O.3     1  UNL1        0.0000
     47 O         113.0211   84.0864    4.8502 O.3     1  UNL1        0.0000
     48 O         110.4113   84.5756    5.2467 O.3     1  UNL1        0.0000
     49 C         107.5945   84.5919    4.8490 C.3     1  UNL1        0.0000
     50 O         107.8672   85.8160    5.5050 O.3     1  UNL1        0.0000
     51 O         109.9783   88.4264    2.2055 O.3     1  UNL1        0.0000
     52 O         111.2852   81.9718    4.5146 O.3     1  UNL1        0.0000
     53 O         109.3051   80.3236    3.5456 O.3     1  UNL1        0.0000
     54 O         107.2120   81.5474    2.0192 O.3     1  UNL1        0.0000
     55 C         105.1666   82.0697    0.1632 C.3     1  UNL1        0.0000
     56 O         104.3186   82.7206   -0.7624 O.3     1  UNL1        0.0000
     57 O         108.9134   79.6421    0.8416 O.3     1  UNL1        0.0000
     58 O         108.3714   79.6258   -2.1736 O.3     1  UNL1        0.0000
     59 O         108.3105   82.0238   -3.2559 O.3     1  UNL1        0.0000
     60 C         114.1506   85.0074   -4.1351 C.3     1  UNL1        0.0000
     61 O         113.9409   83.6914   -3.6575 O.3     1  UNL1        0.0000
     62 C         107.2579   83.2344   -6.5826 C.3     1  UNL1        0.0000
     63 O         107.8738   82.7492   -7.7607 O.3     1  UNL1        0.0000
     64 O         113.1007   90.9764   -1.9000 O.3     1  UNL1        0.0000
     65 O         106.0201   84.4905   -2.9319 O.3     1  UNL1        0.0000
     66 O         107.6217   86.6620   -3.6871 O.3     1  UNL1        0.0000
     67 H         108.6268   81.9974   -5.5800 H       1  UNL1        0.0000
     68 H         106.5364   82.4604   -4.1298 H       1  UNL1        0.0000
     69 H         108.0001   84.4795   -2.4745 H       1  UNL1        0.0000
     70 H         106.8703   85.4852   -5.1256 H       1  UNL1        0.0000
     71 H         109.1840   85.9213   -5.7883 H       1  UNL1        0.0000
     72 H         111.6140   85.1383   -5.1655 H       1  UNL1        0.0000
     73 H         110.7700   87.4112   -5.7348 H       1  UNL1        0.0000
     74 H         112.6626   88.9318   -4.9814 H       1  UNL1        0.0000
     75 H         114.5941   87.6643   -3.8224 H       1  UNL1        0.0000
     76 H         113.7930   85.7756   -2.2500 H       1  UNL1        0.0000
     77 H         108.7311   82.8477   -1.4351 H       1  UNL1        0.0000
     78 H         106.7306   83.5267   -0.0417 H       1  UNL1        0.0000
     79 H         108.6024   82.3291    0.7104 H       1  UNL1        0.0000
     80 H         107.1003   79.7735   -0.0558 H       1  UNL1        0.0000
     81 H         109.7824   80.7380   -1.2194 H       1  UNL1        0.0000
     82 H         109.9710   81.7846    2.2999 H       1  UNL1        0.0000
     83 H         107.3550   82.0967    3.9583 H       1  UNL1        0.0000
     84 H         108.6526   85.4068    3.1878 H       1  UNL1        0.0000
     85 H         110.6825   84.1315    3.2344 H       1  UNL1        0.0000
     86 H         109.4364   82.2154    5.3077 H       1  UNL1        0.0000
     87 H         112.4801   85.3771    2.6247 H       1  UNL1        0.0000
     88 H         113.3347   85.9692    5.5161 H       1  UNL1        0.0000
     89 H         111.1973   86.1812    6.1567 H       1  UNL1        0.0000
     90 H         111.6651   88.1617    5.0692 H       1  UNL1        0.0000
     91 H         113.5103   88.0095    3.8204 H       1  UNL1        0.0000
     92 H         112.8695   87.1366   -1.0373 H       1  UNL1        0.0000
     93 H         115.0993   89.3089   -0.9100 H       1  UNL1        0.0000
     94 H         114.4932   86.7464    0.7205 H       1  UNL1        0.0000
     95 H         114.1430   89.1936    2.2823 H       1  UNL1        0.0000
     96 H         111.4601   88.6337   -0.1998 H       1  UNL1        0.0000
     97 H         109.6655   87.5685   -3.6886 H       1  UNL1        0.0000
     98 H         114.0443   87.9035   -6.2612 H       1  UNL1        0.0000
     99 H         111.5071   91.1436   -0.6206 H       1  UNL1        0.0000
    100 H         111.2549   90.1303   -2.0865 H       1  UNL1        0.0000
    101 H         116.4601   87.4935   -1.0280 H       1  UNL1        0.0000
    102 H         116.0742   87.4647    1.9895 H       1  UNL1        0.0000
    103 H         111.1442   89.7803    3.2216 H       1  UNL1        0.0000
    104 H         109.6928   89.1335    4.0944 H       1  UNL1        0.0000
    105 H         114.6004   84.8341    3.3989 H       1  UNL1        0.0000
    106 H         112.2635   83.5252    5.0122 H       1  UNL1        0.0000
    107 H         106.5364   84.6428    4.5046 H       1  UNL1        0.0000
    108 H         107.6839   83.7798    5.6019 H       1  UNL1        0.0000
    109 H         108.8154   85.9141    5.6255 H       1  UNL1        0.0000
    110 H         110.6692   88.4092    1.5405 H       1  UNL1        0.0000
    111 H         111.2587   81.0107    4.5107 H       1  UNL1        0.0000
    112 H         109.0145   79.8128    2.7873 H       1  UNL1        0.0000
    113 H         104.9773   80.9760    0.0819 H       1  UNL1        0.0000
    114 H         104.8657   82.4174    1.1765 H       1  UNL1        0.0000
    115 H         103.4012   82.5359   -0.5466 H       1  UNL1        0.0000
    116 H         109.1852   78.8655    0.3462 H       1  UNL1        0.0000
    117 H         108.5593   79.8989   -3.0748 H       1  UNL1        0.0000
    118 H         115.2449   85.2182   -4.0839 H       1  UNL1        0.0000
    119 H         113.8401   85.0072   -5.2002 H       1  UNL1        0.0000
    120 H         112.9926   83.5625   -3.5544 H       1  UNL1        0.0000
    121 H         107.0066   84.2964   -6.7844 H       1  UNL1        0.0000
    122 H         106.3094   82.6634   -6.4646 H       1  UNL1        0.0000
    123 H         107.2851   82.8868   -8.5076 H       1  UNL1        0.0000
    124 H         113.3536   90.4271   -2.6474 H       1  UNL1        0.0000
    125 H         105.7711   83.8500   -2.2589 H       1  UNL1        0.0000
    126 H         106.7641   86.7525   -3.2623 H       1  UNL1        0.0000
@<TRIPOS>BOND
     1     1     2     1
     2     1     6     1
     3     1    62     1
     4     1    67     1
     5     2     3     1
     6     2    59     1
     7     2    68     1
     8     3     4     1
     9     3    65     1
    10     3    69     1
    11     4     5     1
    12     4    66     1
    13     4    70     1
    14     5     6     1
    15     5    37     1
    16     5    71     1
    17     7     8     1
    18     7    12     1
    19     7    37     1
    20     7    72     1
    21     8     9     1
    22     8    38     1
    23     8    73     1
    24     9    10     1
    25     9    39     1
    26     9    74     1
    27    10    11     1
    28    10    40     1
    29    10    75     1
    30    11    12     1
    31    11    60     1
    32    11    76     1
    33    13    14     1
    34    13    18     1
    35    13    59     1
    36    13    77     1
    37    14    15     1
    38    15    16     1
    39    15    55     1
    40    15    78     1
    41    16    17     1
    42    16    54     1
    43    16    79     1
    44    17    18     1
    45    17    57     1
    46    17    80     1
    47    18    58     1
    48    18    81     1
    49    19    20     1
    50    19    24     1
    51    19    53     1
    52    19    82     1
    53    20    21     1
    54    20    54     1
    55    20    83     1
    56    21    22     1
    57    22    23     1
    58    22    49     1
    59    22    84     1
    60    23    24     1
    61    23    48     1
    62    23    85     1
    63    24    52     1
    64    24    86     1
    65    25    26     1
    66    25    30     1
    67    25    46     1
    68    25    87     1
    69    26    27     1
    70    26    47     1
    71    26    88     1
    72    27    28     1
    73    27    48     1
    74    27    89     1
    75    28    29     1
    76    29    30     1
    77    29    45     1
    78    29    90     1
    79    30    44     1
    80    30    91     1
    81    31    32     1
    82    31    36     1
    83    31    40     1
    84    31    92     1
    85    32    33     1
    86    32    42     1
    87    32    93     1
    88    33    34     1
    89    33    43     1
    90    33    94     1
    91    34    35     1
    92    34    44     1
    93    34    95     1
    94    35    36     1
    95    36    41     1
    96    36    96     1
    97    38    97     1
    98    39    98     1
    99    41    64     1
   100    41    99     1
   101    41   100     1
   102    42   101     1
   103    43   102     1
   104    45    51     1
   105    45   103     1
   106    45   104     1
   107    46   105     1
   108    47   106     1
   109    49    50     1
   110    49   107     1
   111    49   108     1
   112    50   109     1
   113    51   110     1
   114    52   111     1
   115    53   112     1
   116    55    56     1
   117    55   113     1
   118    55   114     1
   119    56   115     1
   120    57   116     1
   121    58   117     1
   122    60    61     1
   123    60   118     1
   124    60   119     1
   125    61   120     1
   126    62    63     1
   127    62   121     1
   128    62   122     1
   129    63   123     1
   130    64   124     1
   131    65   125     1
   132    66   126     1
