@<TRIPOS>MOLECULE
generated by VMD
126  132    1    0    0
SMALL
NO_CHARGES
****
Energy = 0

@<TRIPOS>ATOM
      1 C         177.8115  336.5010    5.3915 C.3     1  UNL1        0.0000
      2 C         177.7440  335.8507    4.0022 C.3     1  UNL1        0.0000
      3 C         179.1220  335.6804    3.3622 C.3     1  UNL1        0.0000
      4 C         180.2209  336.0035    4.3502 C.3     1  UNL1        0.0000
      5 C         179.9941  337.3732    4.9518 C.3     1  UNL1        0.0000
      6 O         178.6753  337.6036    5.4138 O.3     1  UNL1        0.0000
      7 C         180.5727  339.6131    4.3548 C.3     1  UNL1        0.0000
      8 C         182.0297  339.6421    4.7534 C.3     1  UNL1        0.0000
      9 C         182.5676  341.0641    4.8433 C.3     1  UNL1        0.0000
     10 C         182.1915  341.8830    3.6070 C.3     1  UNL1        0.0000
     11 C         180.7108  341.7069    3.2583 C.3     1  UNL1        0.0000
     12 O         180.3333  340.3627    3.1806 O.3     1  UNL1        0.0000
     13 C         176.7941  336.4505    1.8551 C.3     1  UNL1        0.0000
     14 O         176.9313  335.0980    1.5287 O.3     1  UNL1        0.0000
     15 C         177.2376  334.9178    0.1657 C.3     1  UNL1        0.0000
     16 C         176.5257  335.9677   -0.7056 C.3     1  UNL1        0.0000
     17 C         175.1908  336.3035   -0.0533 C.3     1  UNL1        0.0000
     18 C         175.4764  336.9567    1.2959 C.3     1  UNL1        0.0000
     19 C         176.4733  337.6381   -3.2110 C.3     1  UNL1        0.0000
     20 C         177.0267  336.2483   -3.0202 C.3     1  UNL1        0.0000
     21 O         178.3936  336.3061   -2.6850 O.3     1  UNL1        0.0000
     22 C         179.2000  336.8855   -3.6813 C.3     1  UNL1        0.0000
     23 C         178.7219  338.2952   -4.0723 C.3     1  UNL1        0.0000
     24 C         177.2233  338.2774   -4.3589 C.3     1  UNL1        0.0000
     25 C         180.7036  341.3722   -3.4005 C.3     1  UNL1        0.0000
     26 C         180.1934  341.0201   -4.7804 C.3     1  UNL1        0.0000
     27 C         180.4837  339.5716   -5.1331 C.3     1  UNL1        0.0000
     28 O         181.3884  338.9677   -4.2401 O.3     1  UNL1        0.0000
     29 C         182.5284  339.7627   -4.0538 C.3     1  UNL1        0.0000
     30 C         182.1927  341.0618   -3.3044 C.3     1  UNL1        0.0000
     31 C         182.8799  341.6546    1.2740 C.3     1  UNL1        0.0000
     32 C         182.9906  343.0902    0.7869 C.3     1  UNL1        0.0000
     33 C         182.5621  343.0626   -0.6685 C.3     1  UNL1        0.0000
     34 C         183.3521  342.0395   -1.4592 C.3     1  UNL1        0.0000
     35 O         184.3514  341.4147   -0.6830 O.3     1  UNL1        0.0000
     36 C         183.8926  340.7960    0.4908 C.3     1  UNL1        0.0000
     37 O         180.1949  338.3222    3.9197 O.3     1  UNL1        0.0000
     38 O         182.7691  338.8888    3.8173 O.3     1  UNL1        0.0000
     39 O         182.0689  341.6794    6.0063 O.3     1  UNL1        0.0000
     40 O         183.1349  341.4925    2.6359 O.3     1  UNL1        0.0000
     41 C         185.1316  340.3789    1.2799 C.3     1  UNL1        0.0000
     42 O         182.1399  343.9737    1.4711 O.3     1  UNL1        0.0000
     43 O         182.7272  344.3496   -1.2130 O.3     1  UNL1        0.0000
     44 O         182.5539  340.9795   -1.9504 O.3     1  UNL1        0.0000
     45 C         183.6346  338.9238   -3.4254 C.3     1  UNL1        0.0000
     46 O         180.4754  342.7473   -3.1854 O.3     1  UNL1        0.0000
     47 O         178.8266  341.3460   -4.8502 O.3     1  UNL1        0.0000
     48 O         179.3467  338.7422   -5.2467 O.3     1  UNL1        0.0000
     49 C         179.3965  335.9258   -4.8490 C.3     1  UNL1        0.0000
     50 O         180.6173  336.2130   -5.5050 O.3     1  UNL1        0.0000
     51 O         183.2024  338.3551   -2.2055 O.3     1  UNL1        0.0000
     52 O         176.7327  339.5851   -4.5146 O.3     1  UNL1        0.0000
     53 O         175.1082  337.5856   -3.5456 O.3     1  UNL1        0.0000
     54 O         176.3568  335.5072   -2.0192 O.3     1  UNL1        0.0000
     55 C         176.9034  333.4681   -0.1632 C.3     1  UNL1        0.0000
     56 O         177.5643  332.6279    0.7624 O.3     1  UNL1        0.0000
     57 O         174.4314  337.1858   -0.8416 O.3     1  UNL1        0.0000
     58 O         174.4215  336.6436    2.1736 O.3     1  UNL1        0.0000
     59 O         176.8201  336.6113    3.2559 O.3     1  UNL1        0.0000
     60 C         179.7340  342.4864    4.1351 C.3     1  UNL1        0.0000
     61 O         178.4207  342.2610    3.6575 O.3     1  UNL1        0.0000
     62 C         178.0432  335.5731    6.5826 C.3     1  UNL1        0.0000
     63 O         177.5506  336.1832    7.7607 O.3     1  UNL1        0.0000
     64 O         185.7151  341.5075    1.9000 O.3     1  UNL1        0.0000
     65 O         179.3139  334.3503    2.9319 O.3     1  UNL1        0.0000
     66 O         181.4662  335.9776    3.6871 O.3     1  UNL1        0.0000
     67 H         176.7899  336.9272    5.5800 H       1  UNL1        0.0000
     68 H         177.2777  334.8424    4.1298 H       1  UNL1        0.0000
     69 H         179.2794  336.3301    2.4745 H       1  UNL1        0.0000
     70 H         180.2984  335.2123    5.1256 H       1  UNL1        0.0000
     71 H         180.7069  337.5310    5.7883 H       1  UNL1        0.0000
     72 H         179.8951  339.9515    5.1655 H       1  UNL1        0.0000
     73 H         182.1779  339.1347    5.7348 H       1  UNL1        0.0000
     74 H         183.6759  341.0451    4.9814 H       1  UNL1        0.0000
     75 H         182.3855  342.9614    3.8224 H       1  UNL1        0.0000
     76 H         180.5065  342.1380    2.2500 H       1  UNL1        0.0000
     77 H         177.6390  337.0416    1.4351 H       1  UNL1        0.0000
     78 H         178.3416  335.0493    0.0417 H       1  UNL1        0.0000
     79 H         177.1219  336.9068   -0.7104 H       1  UNL1        0.0000
     80 H         174.5843  335.3744    0.0558 H       1  UNL1        0.0000
     81 H         175.5169  338.0677    1.2194 H       1  UNL1        0.0000
     82 H         176.5611  338.2688   -2.2999 H       1  UNL1        0.0000
     83 H         176.9044  335.6567   -3.9583 H       1  UNL1        0.0000
     84 H         180.1988  336.9935   -3.1878 H       1  UNL1        0.0000
     85 H         178.8995  339.0081   -3.2344 H       1  UNL1        0.0000
     86 H         176.9983  337.7393   -5.3077 H       1  UNL1        0.0000
     87 H         180.1236  340.8204   -2.6247 H       1  UNL1        0.0000
     88 H         180.7054  341.6820   -5.5161 H       1  UNL1        0.0000
     89 H         180.9429  339.5473   -6.1567 H       1  UNL1        0.0000
     90 H         182.9176  340.0386   -5.0692 H       1  UNL1        0.0000
     91 H         182.7435  341.8819   -3.8204 H       1  UNL1        0.0000
     92 H         181.8783  341.2307    1.0373 H       1  UNL1        0.0000
     93 H         184.0240  343.4862    0.9100 H       1  UNL1        0.0000
     94 H         181.4689  342.8497   -0.7205 H       1  UNL1        0.0000
     95 H         183.9200  342.5286   -2.2823 H       1  UNL1        0.0000
     96 H         183.3921  339.8392    0.1998 H       1  UNL1        0.0000
     97 H         182.3483  338.0320    3.6886 H       1  UNL1        0.0000
     98 H         182.6312  342.4145    6.2612 H       1  UNL1        0.0000
     99 H         185.9012  339.9161    0.6206 H       1  UNL1        0.0000
    100 H         184.8910  339.6518    2.0865 H       1  UNL1        0.0000
    101 H         182.1926  344.8253    1.0280 H       1  UNL1        0.0000
    102 H         182.1683  344.4391   -1.9895 H       1  UNL1        0.0000
    103 H         184.5424  339.5370   -3.2216 H       1  UNL1        0.0000
    104 H         183.9128  338.0780   -4.0944 H       1  UNL1        0.0000
    105 H         179.5554  342.9341   -3.3989 H       1  UNL1        0.0000
    106 H         178.2744  340.5818   -5.0122 H       1  UNL1        0.0000
    107 H         179.4600  334.8684   -4.5046 H       1  UNL1        0.0000
    108 H         178.5834  336.0056   -5.6019 H       1  UNL1        0.0000
    109 H         180.7041  337.1623   -5.6255 H       1  UNL1        0.0000
    110 H         183.1770  339.0457   -1.5405 H       1  UNL1        0.0000
    111 H         175.7720  339.5472   -4.5107 H       1  UNL1        0.0000
    112 H         174.6009  337.2889   -2.7873 H       1  UNL1        0.0000
    113 H         175.8120  333.2658   -0.0819 H       1  UNL1        0.0000
    114 H         177.2546  333.1713   -1.1765 H       1  UNL1        0.0000
    115 H         177.3905  331.7083    0.5466 H       1  UNL1        0.0000
    116 H         173.6516  337.4483   -0.3462 H       1  UNL1        0.0000
    117 H         174.6924  336.8348    3.0748 H       1  UNL1        0.0000
    118 H         179.9318  343.5832    4.0839 H       1  UNL1        0.0000
    119 H         179.7375  342.1759    5.2002 H       1  UNL1        0.0000
    120 H         178.3030  341.3113    3.5544 H       1  UNL1        0.0000
    121 H         179.1081  335.3344    6.7844 H       1  UNL1        0.0000
    122 H         177.4835  334.6178    6.4646 H       1  UNL1        0.0000
    123 H         177.6952  335.5962    8.5076 H       1  UNL1        0.0000
    124 H         185.1628  341.7539    2.6474 H       1  UNL1        0.0000
    125 H         178.6764  334.0937    2.2589 H       1  UNL1        0.0000
    126 H         181.5668  335.1212    3.2623 H       1  UNL1        0.0000
@<TRIPOS>BOND
     1     1     2     1
     2     1     6     1
     3     1    62     1
     4     1    67     1
     5     2     3     1
     6     2    59     1
     7     2    68     1
     8     3     4     1
     9     3    65     1
    10     3    69     1
    11     4     5     1
    12     4    66     1
    13     4    70     1
    14     5     6     1
    15     5    37     1
    16     5    71     1
    17     7     8     1
    18     7    12     1
    19     7    37     1
    20     7    72     1
    21     8     9     1
    22     8    38     1
    23     8    73     1
    24     9    10     1
    25     9    39     1
    26     9    74     1
    27    10    11     1
    28    10    40     1
    29    10    75     1
    30    11    12     1
    31    11    60     1
    32    11    76     1
    33    13    14     1
    34    13    18     1
    35    13    59     1
    36    13    77     1
    37    14    15     1
    38    15    16     1
    39    15    55     1
    40    15    78     1
    41    16    17     1
    42    16    54     1
    43    16    79     1
    44    17    18     1
    45    17    57     1
    46    17    80     1
    47    18    58     1
    48    18    81     1
    49    19    20     1
    50    19    24     1
    51    19    53     1
    52    19    82     1
    53    20    21     1
    54    20    54     1
    55    20    83     1
    56    21    22     1
    57    22    23     1
    58    22    49     1
    59    22    84     1
    60    23    24     1
    61    23    48     1
    62    23    85     1
    63    24    52     1
    64    24    86     1
    65    25    26     1
    66    25    30     1
    67    25    46     1
    68    25    87     1
    69    26    27     1
    70    26    47     1
    71    26    88     1
    72    27    28     1
    73    27    48     1
    74    27    89     1
    75    28    29     1
    76    29    30     1
    77    29    45     1
    78    29    90     1
    79    30    44     1
    80    30    91     1
    81    31    32     1
    82    31    36     1
    83    31    40     1
    84    31    92     1
    85    32    33     1
    86    32    42     1
    87    32    93     1
    88    33    34     1
    89    33    43     1
    90    33    94     1
    91    34    35     1
    92    34    44     1
    93    34    95     1
    94    35    36     1
    95    36    41     1
    96    36    96     1
    97    38    97     1
    98    39    98     1
    99    41    64     1
   100    41    99     1
   101    41   100     1
   102    42   101     1
   103    43   102     1
   104    45    51     1
   105    45   103     1
   106    45   104     1
   107    46   105     1
   108    47   106     1
   109    49    50     1
   110    49   107     1
   111    49   108     1
   112    50   109     1
   113    51   110     1
   114    52   111     1
   115    53   112     1
   116    55    56     1
   117    55   113     1
   118    55   114     1
   119    56   115     1
   120    57   116     1
   121    58   117     1
   122    60    61     1
   123    60   118     1
   124    60   119     1
   125    61   120     1
   126    62    63     1
   127    62   121     1
   128    62   122     1
   129    63   123     1
   130    64   124     1
   131    65   125     1
   132    66   126     1
