@<TRIPOS>MOLECULE
generated by VMD
126  132    1    0    0
SMALL
NO_CHARGES
****
Energy = 0

@<TRIPOS>ATOM
      1 C          97.7941  211.9395    5.3915 C.3     1  UNL1        0.0000
      2 C          98.1702  212.4742    4.0022 C.3     1  UNL1        0.0000
      3 C          97.0503  213.2952    3.3622 C.3     1  UNL1        0.0000
      4 C          95.9334  213.5492    4.3502 C.3     1  UNL1        0.0000
      5 C          95.4632  212.2428    4.9518 C.3     1  UNL1        0.0000
      6 O          96.5021  211.3984    5.4138 O.3     1  UNL1        0.0000
      7 C          93.8656  210.5698    4.3548 C.3     1  UNL1        0.0000
      8 C          92.5795  211.2553    4.7534 C.3     1  UNL1        0.0000
      9 C          91.4162  210.2763    4.8433 C.3     1  UNL1        0.0000
     10 C          91.3451  209.3780    3.6070 C.3     1  UNL1        0.0000
     11 C          92.7236  208.8094    3.2583 C.3     1  UNL1        0.0000
     12 O          93.7089  209.7987    3.1806 O.3     1  UNL1        0.0000
     13 C          98.7068  211.4873    1.8551 C.3     1  UNL1        0.0000
     14 O          99.2468  212.7349    1.5287 O.3     1  UNL1        0.0000
     15 C          99.0673  213.0416    0.1657 C.3     1  UNL1        0.0000
     16 C          99.1767  211.7778   -0.7056 C.3     1  UNL1        0.0000
     17 C         100.1781  210.8335   -0.0533 C.3     1  UNL1        0.0000
     18 C          99.6102  210.4026    1.2959 C.3     1  UNL1        0.0000
     19 C          98.4075  210.2941   -3.2110 C.3     1  UNL1        0.0000
     20 C          98.6024  211.7772   -3.0202 C.3     1  UNL1        0.0000
     21 O          97.3810  212.3936   -2.6850 O.3     1  UNL1        0.0000
     22 C          96.3944  212.2812   -3.6813 C.3     1  UNL1        0.0000
     23 C          96.1240  210.8174   -4.0723 C.3     1  UNL1        0.0000
     24 C          97.4409  210.1019   -4.3589 C.3     1  UNL1        0.0000
     25 C          92.8931  209.0981   -3.4005 C.3     1  UNL1        0.0000
     26 C          93.5102  209.1566   -4.7804 C.3     1  UNL1        0.0000
     27 C          93.9635  210.5626   -5.1331 C.3     1  UNL1        0.0000
     28 O          93.4683  211.5311   -4.2401 O.3     1  UNL1        0.0000
     29 C          92.0853  211.3932   -4.0538 C.3     1  UNL1        0.0000
     30 C          91.7447  210.0955   -3.3044 C.3     1  UNL1        0.0000
     31 C          90.8556  209.9132    1.2740 C.3     1  UNL1        0.0000
     32 C          90.0586  208.7140    0.7869 C.3     1  UNL1        0.0000
     33 C          90.4462  208.5291   -0.6685 C.3     1  UNL1        0.0000
     34 C          90.2556  209.8076   -1.4592 C.3     1  UNL1        0.0000
     35 O          89.6881  210.8405   -0.6830 O.3     1  UNL1        0.0000
     36 C          90.3904  211.1567    0.4908 C.3     1  UNL1        0.0000
     37 O          94.8250  211.5124    3.9197 O.3     1  UNL1        0.0000
     38 O          92.3015  212.2735    3.8173 O.3     1  UNL1        0.0000
     39 O          91.5514  209.4960    6.0063 O.3     1  UNL1        0.0000
     40 O          90.7121  210.1792    2.6359 O.3     1  UNL1        0.0000
     41 C          89.5123  212.1252    1.2799 C.3     1  UNL1        0.0000
     42 O          90.3702  207.5278    1.4711 O.3     1  UNL1        0.0000
     43 O          89.6742  207.4862   -1.2130 O.3     1  UNL1        0.0000
     44 O          91.4695  210.3435   -1.9504 O.3     1  UNL1        0.0000
     45 C          91.5289  212.6652   -3.4254 C.3     1  UNL1        0.0000
     46 O          92.4215  207.7864   -3.1854 O.3     1  UNL1        0.0000
     47 O          94.5445  208.2053   -4.8502 O.3     1  UNL1        0.0000
     48 O          95.3606  210.7320   -5.2467 O.3     1  UNL1        0.0000
     49 C          96.6910  213.2149   -4.8490 C.3     1  UNL1        0.0000
     50 O          95.4852  213.5596   -5.5050 O.3     1  UNL1        0.0000
     51 O          92.1837  212.9508   -2.2055 O.3     1  UNL1        0.0000
     52 O          97.2313  208.7211   -4.5146 O.3     1  UNL1        0.0000
     53 O          99.6248  209.6740   -3.5456 O.3     1  UNL1        0.0000
     54 O          99.5487  212.0975   -2.0192 O.3     1  UNL1        0.0000
     55 C         100.0663  214.1441   -0.1632 C.3     1  UNL1        0.0000
     56 O          99.8993  215.1999    0.7624 O.3     1  UNL1        0.0000
     57 O         100.4106  209.6928   -0.8416 O.3     1  UNL1        0.0000
     58 O         100.6837  210.1613    2.1736 O.3     1  UNL1        0.0000
     59 O          98.6057  211.3597    3.2559 O.3     1  UNL1        0.0000
     60 C          93.1960  207.6525    4.1351 C.3     1  UNL1        0.0000
     61 O          94.4524  207.2085    3.6575 O.3     1  UNL1        0.0000
     62 C          98.0445  212.8626    6.5826 C.3     1  UNL1        0.0000
     63 O          98.1768  212.0897    7.7607 O.3     1  UNL1        0.0000
     64 O          88.4524  211.4247    1.9000 O.3     1  UNL1        0.0000
     65 O          97.5317  214.5498    2.9319 O.3     1  UNL1        0.0000
     66 O          94.8591  214.1793    3.6871 O.3     1  UNL1        0.0000
     67 H          98.4779  211.0692    5.5800 H       1  UNL1        0.0000
     68 H          99.0691  213.1270    4.1298 H       1  UNL1        0.0000
     69 H          96.5961  212.8048    2.4745 H       1  UNL1        0.0000
     70 H          96.2519  214.2777    5.1256 H       1  UNL1        0.0000
     71 H          94.7640  212.4528    5.7883 H       1  UNL1        0.0000
     72 H          94.2919  209.9439    5.1655 H       1  UNL1        0.0000
     73 H          92.6977  211.7705    5.7348 H       1  UNL1        0.0000
     74 H          90.4581  210.8335    4.9814 H       1  UNL1        0.0000
     75 H          90.6497  208.5313    3.8224 H       1  UNL1        0.0000
     76 H          92.6916  208.3334    2.2500 H       1  UNL1        0.0000
     77 H          97.6809  211.3834    1.4351 H       1  UNL1        0.0000
     78 H          98.0394  213.4654    0.0417 H       1  UNL1        0.0000
     79 H          98.1981  211.2489   -0.7104 H       1  UNL1        0.0000
     80 H         101.1608  211.3487    0.0558 H       1  UNL1        0.0000
     81 H          99.0328  209.4525    1.2194 H       1  UNL1        0.0000
     82 H          98.0232  209.7864   -2.2999 H       1  UNL1        0.0000
     83 H          98.9978  212.2341   -3.9583 H       1  UNL1        0.0000
     84 H          95.4698  212.6742   -3.1878 H       1  UNL1        0.0000
     85 H          95.6213  210.2817   -3.2344 H       1  UNL1        0.0000
     86 H          97.8998  210.4619   -5.3077 H       1  UNL1        0.0000
     87 H          93.6686  209.2968   -2.6247 H       1  UNL1        0.0000
     88 H          92.7404  208.8286   -5.5161 H       1  UNL1        0.0000
     89 H          93.5745  210.8079   -6.1567 H       1  UNL1        0.0000
     90 H          91.6110  211.3423   -5.0692 H       1  UNL1        0.0000
     91 H          90.8638  209.6483   -3.8204 H       1  UNL1        0.0000
     92 H          91.9367  209.7946    1.0373 H       1  UNL1        0.0000
     93 H          88.9634  208.8724    0.9100 H       1  UNL1        0.0000
     94 H          91.5043  208.1817   -0.7205 H       1  UNL1        0.0000
     95 H          89.5213  209.6576   -2.2823 H       1  UNL1        0.0000
     96 H          91.2940  211.7478    0.1998 H       1  UNL1        0.0000
     97 H          93.0868  212.8162    3.6886 H       1  UNL1        0.0000
     98 H          90.7020  209.1285    6.2612 H       1  UNL1        0.0000
     99 H          89.0662  212.9047    0.6206 H       1  UNL1        0.0000
    100 H          90.0770  212.6426    2.0865 H       1  UNL1        0.0000
    101 H          89.9088  206.8101    1.0280 H       1  UNL1        0.0000
    102 H          90.1184  207.1354   -1.9895 H       1  UNL1        0.0000
    103 H          90.4374  212.5728   -3.2216 H       1  UNL1        0.0000
    104 H          91.6987  213.5393   -4.0944 H       1  UNL1        0.0000
    105 H          93.1335  207.1746   -3.3989 H       1  UNL1        0.0000
    106 H          95.3993  208.6030   -5.0122 H       1  UNL1        0.0000
    107 H          97.1514  214.1689   -4.5046 H       1  UNL1        0.0000
    108 H          97.3619  212.7486   -5.6019 H       1  UNL1        0.0000
    109 H          94.9463  212.7733   -5.6255 H       1  UNL1        0.0000
    110 H          91.8690  212.3356   -1.5405 H       1  UNL1        0.0000
    111 H          98.0884  208.2854   -4.5107 H       1  UNL1        0.0000
    112 H         100.2124  209.6855   -2.7873 H       1  UNL1        0.0000
    113 H         101.1177  213.7883   -0.0819 H       1  UNL1        0.0000
    114 H          99.9045  214.5745   -1.1765 H       1  UNL1        0.0000
    115 H         100.4995  215.9179    0.5466 H       1  UNL1        0.0000
    116 H         100.9633  209.0833   -0.3462 H       1  UNL1        0.0000
    117 H         100.3540  210.1266    3.0748 H       1  UNL1        0.0000
    118 H          92.4883  206.7915    4.0839 H       1  UNL1        0.0000
    119 H          93.3444  207.9252    5.2002 H       1  UNL1        0.0000
    120 H          95.0184  207.9802    3.5544 H       1  UNL1        0.0000
    121 H          97.2313  213.5904    6.7844 H       1  UNL1        0.0000
    122 H          98.9991  213.4234    6.4646 H       1  UNL1        0.0000
    123 H          98.3370  212.6726    8.5076 H       1  UNL1        0.0000
    124 H          88.8143  210.9402    2.6474 H       1  UNL1        0.0000
    125 H          98.2134  214.4628    2.2589 H       1  UNL1        0.0000
    126 H          95.1890  214.9759    3.2623 H       1  UNL1        0.0000
@<TRIPOS>BOND
     1     1     2     1
     2     1     6     1
     3     1    62     1
     4     1    67     1
     5     2     3     1
     6     2    59     1
     7     2    68     1
     8     3     4     1
     9     3    65     1
    10     3    69     1
    11     4     5     1
    12     4    66     1
    13     4    70     1
    14     5     6     1
    15     5    37     1
    16     5    71     1
    17     7     8     1
    18     7    12     1
    19     7    37     1
    20     7    72     1
    21     8     9     1
    22     8    38     1
    23     8    73     1
    24     9    10     1
    25     9    39     1
    26     9    74     1
    27    10    11     1
    28    10    40     1
    29    10    75     1
    30    11    12     1
    31    11    60     1
    32    11    76     1
    33    13    14     1
    34    13    18     1
    35    13    59     1
    36    13    77     1
    37    14    15     1
    38    15    16     1
    39    15    55     1
    40    15    78     1
    41    16    17     1
    42    16    54     1
    43    16    79     1
    44    17    18     1
    45    17    57     1
    46    17    80     1
    47    18    58     1
    48    18    81     1
    49    19    20     1
    50    19    24     1
    51    19    53     1
    52    19    82     1
    53    20    21     1
    54    20    54     1
    55    20    83     1
    56    21    22     1
    57    22    23     1
    58    22    49     1
    59    22    84     1
    60    23    24     1
    61    23    48     1
    62    23    85     1
    63    24    52     1
    64    24    86     1
    65    25    26     1
    66    25    30     1
    67    25    46     1
    68    25    87     1
    69    26    27     1
    70    26    47     1
    71    26    88     1
    72    27    28     1
    73    27    48     1
    74    27    89     1
    75    28    29     1
    76    29    30     1
    77    29    45     1
    78    29    90     1
    79    30    44     1
    80    30    91     1
    81    31    32     1
    82    31    36     1
    83    31    40     1
    84    31    92     1
    85    32    33     1
    86    32    42     1
    87    32    93     1
    88    33    34     1
    89    33    43     1
    90    33    94     1
    91    34    35     1
    92    34    44     1
    93    34    95     1
    94    35    36     1
    95    36    41     1
    96    36    96     1
    97    38    97     1
    98    39    98     1
    99    41    64     1
   100    41    99     1
   101    41   100     1
   102    42   101     1
   103    43   102     1
   104    45    51     1
   105    45   103     1
   106    45   104     1
   107    46   105     1
   108    47   106     1
   109    49    50     1
   110    49   107     1
   111    49   108     1
   112    50   109     1
   113    51   110     1
   114    52   111     1
   115    53   112     1
   116    55    56     1
   117    55   113     1
   118    55   114     1
   119    56   115     1
   120    57   116     1
   121    58   117     1
   122    60    61     1
   123    60   118     1
   124    60   119     1
   125    61   120     1
   126    62    63     1
   127    62   121     1
   128    62   122     1
   129    63   123     1
   130    64   124     1
   131    65   125     1
   132    66   126     1
