@<TRIPOS>MOLECULE
generated by VMD
126  132    1    0    0
SMALL
NO_CHARGES
****
Energy = 0

@<TRIPOS>ATOM
      1 C         182.8279  168.7222    5.3915 C.3     1  UNL1        0.0000
      2 C         182.3595  168.2662    4.0022 C.3     1  UNL1        0.0000
      3 C         183.3082  167.2524    3.3622 C.3     1  UNL1        0.0000
      4 C         184.3589  166.7962    4.3502 C.3     1  UNL1        0.0000
      5 C         185.0625  167.9931    4.9518 C.3     1  UNL1        0.0000
      6 O         184.1977  169.0151    5.4138 O.3     1  UNL1        0.0000
      7 C         186.9420  169.3419    4.3548 C.3     1  UNL1        0.0000
      8 C         188.0791  168.4304    4.7534 C.3     1  UNL1        0.0000
      9 C         189.4033  169.1774    4.8433 C.3     1  UNL1        0.0000
     10 C         189.6394  170.0471    3.6070 C.3     1  UNL1        0.0000
     11 C         188.3898  170.8608    3.2583 C.3     1  UNL1        0.0000
     12 O         187.2385  170.0707    3.1806 O.3     1  UNL1        0.0000
     13 C         182.0145  169.3354    1.8551 C.3     1  UNL1        0.0000
     14 O         181.2532  168.2092    1.5287 O.3     1  UNL1        0.0000
     15 C         181.3729  167.8745    0.1657 C.3     1  UNL1        0.0000
     16 C         181.4991  169.1368   -0.7056 C.3     1  UNL1        0.0000
     17 C         180.6895  170.2500   -0.0533 C.3     1  UNL1        0.0000
     18 C         181.3273  170.5684    1.2959 C.3     1  UNL1        0.0000
     19 C         182.5293  170.4527   -3.2110 C.3     1  UNL1        0.0000
     20 C         182.0636  169.0312   -3.0202 C.3     1  UNL1        0.0000
     21 O         183.1500  168.1995   -2.6850 O.3     1  UNL1        0.0000
     22 C         184.1403  168.1276   -3.6813 C.3     1  UNL1        0.0000
     23 C         184.6767  169.5162   -4.0723 C.3     1  UNL1        0.0000
     24 C         183.5148  170.4629   -4.3589 C.3     1  UNL1        0.0000
     25 C         188.1698  170.6084   -3.4005 C.3     1  UNL1        0.0000
     26 C         187.5525  170.6651   -4.7804 C.3     1  UNL1        0.0000
     27 C         186.8471  169.3670   -5.1331 C.3     1  UNL1        0.0000
     28 O         187.1547  168.3237   -4.2401 O.3     1  UNL1        0.0000
     29 C         188.5393  168.2035   -4.0538 C.3     1  UNL1        0.0000
     30 C         189.1140  169.4159   -3.3044 C.3     1  UNL1        0.0000
     31 C         190.0215  169.4306    1.2740 C.3     1  UNL1        0.0000
     32 C         191.0264  170.4618    0.7869 C.3     1  UNL1        0.0000
     33 C         190.6797  170.7151   -0.6685 C.3     1  UNL1        0.0000
     34 C         190.6307  169.4235   -1.4592 C.3     1  UNL1        0.0000
     35 O         190.9974  168.3035   -0.6830 O.3     1  UNL1        0.0000
     36 C         190.2487  168.1225    0.4908 C.3     1  UNL1        0.0000
     37 O         185.8248  168.5930    3.9197 O.3     1  UNL1        0.0000
     38 O         188.1640  167.3784    3.8173 O.3     1  UNL1        0.0000
     39 O         189.4148  169.9693    6.0063 O.3     1  UNL1        0.0000
     40 O         190.1133  169.1427    2.6359 O.3     1  UNL1        0.0000
     41 C         190.9326  167.0083    1.2799 C.3     1  UNL1        0.0000
     42 O         190.9396  171.6852    1.4711 O.3     1  UNL1        0.0000
     43 O         191.6312  171.5973   -1.2130 O.3     1  UNL1        0.0000
     44 O         189.3386  169.1213   -1.9504 O.3     1  UNL1        0.0000
     45 C         188.8509  166.8506   -3.4254 C.3     1  UNL1        0.0000
     46 O         188.8758  171.8103   -3.1854 O.3     1  UNL1        0.0000
     47 O         186.7120  171.7912   -4.8502 O.3     1  UNL1        0.0000
     48 O         185.4428  169.4590   -5.2467 O.3     1  UNL1        0.0000
     49 C         183.6762  167.2649   -4.8490 C.3     1  UNL1        0.0000
     50 O         184.7974  166.7031   -5.5050 O.3     1  UNL1        0.0000
     51 O         188.1546  166.6909   -2.2055 O.3     1  UNL1        0.0000
     52 O         183.9762  171.7811   -4.5146 O.3     1  UNL1        0.0000
     53 O         181.4477  171.2872   -3.5456 O.3     1  UNL1        0.0000
     54 O         181.0743  168.8914   -2.0192 O.3     1  UNL1        0.0000
     55 C         180.1873  166.9758   -0.1632 C.3     1  UNL1        0.0000
     56 O         180.1562  165.9073    0.7624 O.3     1  UNL1        0.0000
     57 O         180.6720  171.4139   -0.8416 O.3     1  UNL1        0.0000
     58 O         180.3169  171.0040    2.1736 O.3     1  UNL1        0.0000
     59 O         182.1375  169.4421    3.2559 O.3     1  UNL1        0.0000
     60 C         188.1395  172.0851    4.1351 C.3     1  UNL1        0.0000
     61 O         186.9868  172.7537    3.6575 O.3     1  UNL1        0.0000
     62 C         182.4112  167.8614    6.5826 C.3     1  UNL1        0.0000
     63 O         182.4240  168.6454    7.7607 O.3     1  UNL1        0.0000
     64 O         192.1038  167.5008    1.9000 O.3     1  UNL1        0.0000
     65 O         182.6031  166.1084    2.9319 O.3     1  UNL1        0.0000
     66 O         185.2982  165.9784    3.6871 O.3     1  UNL1        0.0000
     67 H         182.3168  169.7040    5.5800 H       1  UNL1        0.0000
     68 H         181.3553  167.7910    4.1298 H       1  UNL1        0.0000
     69 H         183.8453  167.6503    2.4745 H       1  UNL1        0.0000
     70 H         183.9112  166.1392    5.1256 H       1  UNL1        0.0000
     71 H         185.7108  167.6575    5.7883 H       1  UNL1        0.0000
     72 H         186.6387  170.0359    5.1655 H       1  UNL1        0.0000
     73 H         187.8677  167.9459    5.7348 H       1  UNL1        0.0000
     74 H         190.2420  168.4526    4.9814 H       1  UNL1        0.0000
     75 H         190.4794  170.7506    3.8224 H       1  UNL1        0.0000
     76 H         188.5092  171.3226    2.2500 H       1  UNL1        0.0000
     77 H         183.0419  169.2478    1.4351 H       1  UNL1        0.0000
     78 H         182.3047  167.2680    0.0417 H       1  UNL1        0.0000
     79 H         182.5586  169.4756   -0.7104 H       1  UNL1        0.0000
     80 H         179.6285  169.9254    0.0558 H       1  UNL1        0.0000
     81 H         182.0705  171.3954    1.2194 H       1  UNL1        0.0000
     82 H         183.0009  170.8806   -2.2999 H       1  UNL1        0.0000
     83 H         181.5905  168.6553   -3.9583 H       1  UNL1        0.0000
     84 H         184.9763  167.5704   -3.1878 H       1  UNL1        0.0000
     85 H         185.2698  169.9497   -3.2344 H       1  UNL1        0.0000
     86 H         182.9972  170.1939   -5.3077 H       1  UNL1        0.0000
     87 H         187.3710  170.5565   -2.6247 H       1  UNL1        0.0000
     88 H         188.3697  170.8450   -5.5161 H       1  UNL1        0.0000
     89 H         187.1840  169.0541   -6.1567 H       1  UNL1        0.0000
     90 H         189.0149  168.1658   -5.0692 H       1  UNL1        0.0000
     91 H         190.0624  169.6925   -3.8204 H       1  UNL1        0.0000
     92 H         188.9810  169.7470    1.0373 H       1  UNL1        0.0000
     93 H         192.0735  170.1035    0.9100 H       1  UNL1        0.0000
     94 H         189.7041  171.2522   -0.7205 H       1  UNL1        0.0000
     95 H         191.3800  169.4350   -2.2823 H       1  UNL1        0.0000
     96 H         189.2513  167.7087    0.1998 H       1  UNL1        0.0000
     97 H         187.2919  166.9902    3.6886 H       1  UNL1        0.0000
     98 H         190.3175  170.1734    6.2612 H       1  UNL1        0.0000
     99 H         191.2268  166.1598    0.6206 H       1  UNL1        0.0000
    100 H         190.2819  166.6044    2.0865 H       1  UNL1        0.0000
    101 H         191.5257  172.3052    1.0280 H       1  UNL1        0.0000
    102 H         191.2596  172.0242   -1.9895 H       1  UNL1        0.0000
    103 H         189.9407  166.7396   -3.2216 H       1  UNL1        0.0000
    104 H         188.5224  166.0229   -4.0944 H       1  UNL1        0.0000
    105 H         188.2892  172.5432   -3.3989 H       1  UNL1        0.0000
    106 H         185.7984  171.5583   -5.0122 H       1  UNL1        0.0000
    107 H         183.0473  166.4124   -4.5046 H       1  UNL1        0.0000
    108 H         183.1031  167.8472   -5.6019 H       1  UNL1        0.0000
    109 H         185.4724  167.3762   -5.6255 H       1  UNL1        0.0000
    110 H         188.5776  167.2374   -1.5405 H       1  UNL1        0.0000
    111 H         183.2143  172.3677   -4.5107 H       1  UNL1        0.0000
    112 H         180.8681  171.3845   -2.7873 H       1  UNL1        0.0000
    113 H         179.2198  167.5199   -0.0819 H       1  UNL1        0.0000
    114 H         180.2667  166.5229   -1.1765 H       1  UNL1        0.0000
    115 H         179.4335  165.3127    0.5466 H       1  UNL1        0.0000
    116 H         180.2415  172.1152   -0.3462 H       1  UNL1        0.0000
    117 H         180.6474  170.9772    3.0748 H       1  UNL1        0.0000
    118 H         188.9941  172.8003    4.0839 H       1  UNL1        0.0000
    119 H         187.9431  171.8445    5.2002 H       1  UNL1        0.0000
    120 H         186.2878  172.1000    3.5544 H       1  UNL1        0.0000
    121 H         183.0757  166.9957    6.7844 H       1  UNL1        0.0000
    122 H         181.3694  167.4867    6.4646 H       1  UNL1        0.0000
    123 H         182.1589  168.1021    8.5076 H       1  UNL1        0.0000
    124 H         191.8377  168.0439    2.6474 H       1  UNL1        0.0000
    125 H         181.9493  166.3199    2.2589 H       1  UNL1        0.0000
    126 H         184.8267  165.2564    3.2623 H       1  UNL1        0.0000
@<TRIPOS>BOND
     1     1     2     1
     2     1     6     1
     3     1    62     1
     4     1    67     1
     5     2     3     1
     6     2    59     1
     7     2    68     1
     8     3     4     1
     9     3    65     1
    10     3    69     1
    11     4     5     1
    12     4    66     1
    13     4    70     1
    14     5     6     1
    15     5    37     1
    16     5    71     1
    17     7     8     1
    18     7    12     1
    19     7    37     1
    20     7    72     1
    21     8     9     1
    22     8    38     1
    23     8    73     1
    24     9    10     1
    25     9    39     1
    26     9    74     1
    27    10    11     1
    28    10    40     1
    29    10    75     1
    30    11    12     1
    31    11    60     1
    32    11    76     1
    33    13    14     1
    34    13    18     1
    35    13    59     1
    36    13    77     1
    37    14    15     1
    38    15    16     1
    39    15    55     1
    40    15    78     1
    41    16    17     1
    42    16    54     1
    43    16    79     1
    44    17    18     1
    45    17    57     1
    46    17    80     1
    47    18    58     1
    48    18    81     1
    49    19    20     1
    50    19    24     1
    51    19    53     1
    52    19    82     1
    53    20    21     1
    54    20    54     1
    55    20    83     1
    56    21    22     1
    57    22    23     1
    58    22    49     1
    59    22    84     1
    60    23    24     1
    61    23    48     1
    62    23    85     1
    63    24    52     1
    64    24    86     1
    65    25    26     1
    66    25    30     1
    67    25    46     1
    68    25    87     1
    69    26    27     1
    70    26    47     1
    71    26    88     1
    72    27    28     1
    73    27    48     1
    74    27    89     1
    75    28    29     1
    76    29    30     1
    77    29    45     1
    78    29    90     1
    79    30    44     1
    80    30    91     1
    81    31    32     1
    82    31    36     1
    83    31    40     1
    84    31    92     1
    85    32    33     1
    86    32    42     1
    87    32    93     1
    88    33    34     1
    89    33    43     1
    90    33    94     1
    91    34    35     1
    92    34    44     1
    93    34    95     1
    94    35    36     1
    95    36    41     1
    96    36    96     1
    97    38    97     1
    98    39    98     1
    99    41    64     1
   100    41    99     1
   101    41   100     1
   102    42   101     1
   103    43   102     1
   104    45    51     1
   105    45   103     1
   106    45   104     1
   107    46   105     1
   108    47   106     1
   109    49    50     1
   110    49   107     1
   111    49   108     1
   112    50   109     1
   113    51   110     1
   114    52   111     1
   115    53   112     1
   116    55    56     1
   117    55   113     1
   118    55   114     1
   119    56   115     1
   120    57   116     1
   121    58   117     1
   122    60    61     1
   123    60   118     1
   124    60   119     1
   125    61   120     1
   126    62    63     1
   127    62   121     1
   128    62   122     1
   129    63   123     1
   130    64   124     1
   131    65   125     1
   132    66   126     1
