@<TRIPOS>MOLECULE
generated by VMD
126  132    1    0    0
SMALL
NO_CHARGES
****
Energy = 0

@<TRIPOS>ATOM
      1 C          75.7744  122.8165   -5.3915 C.3     1  UNL1        0.0000
      2 C          75.1209  122.8024   -4.0022 C.3     1  UNL1        0.0000
      3 C          75.1236  121.4139   -3.3622 C.3     1  UNL1        0.0000
      4 C          75.5811  120.3638   -4.3502 C.3     1  UNL1        0.0000
      5 C          76.9119  120.7596   -4.9518 C.3     1  UNL1        0.0000
      6 O          76.9762  122.0969   -5.4138 O.3     1  UNL1        0.0000
      7 C          79.2064  120.4647   -4.3548 C.3     1  UNL1        0.0000
      8 C          79.4168  119.0227   -4.7534 C.3     1  UNL1        0.0000
      9 C          80.8948  118.6661   -4.8433 C.3     1  UNL1        0.0000
     10 C          81.6604  119.1414   -3.6070 C.3     1  UNL1        0.0000
     11 C          81.3012  120.5886   -3.2583 C.3     1  UNL1        0.0000
     12 O          79.9203  120.7957   -3.1806 O.3     1  UNL1        0.0000
     13 C          75.5976  123.8197   -1.8551 C.3     1  UNL1        0.0000
     14 O          74.2727  123.5150   -1.5287 O.3     1  UNL1        0.0000
     15 C          74.1321  123.1886   -0.1657 C.3     1  UNL1        0.0000
     16 C          75.0850  124.0258    0.7056 C.3     1  UNL1        0.0000
     17 C          75.2519  125.3921    0.0533 C.3     1  UNL1        0.0000
     18 C          75.9356  125.1902   -1.2959 C.3     1  UNL1        0.0000
     19 C          76.7359  124.2860    3.2110 C.3     1  UNL1        0.0000
     20 C          75.4260  123.5637    3.0202 C.3     1  UNL1        0.0000
     21 O          75.6536  122.2146    2.6850 O.3     1  UNL1        0.0000
     22 C          76.3290  121.4867    3.6813 C.3     1  UNL1        0.0000
     23 C          77.6682  122.1368    4.0723 C.3     1  UNL1        0.0000
     24 C          77.4638  123.6215    4.3589 C.3     1  UNL1        0.0000
     25 C          80.9681  120.5540    3.4005 C.3     1  UNL1        0.0000
     26 C          80.5552  121.0163    4.7804 C.3     1  UNL1        0.0000
     27 C          79.1542  120.5478    5.1331 C.3     1  UNL1        0.0000
     28 O          78.6677  119.5749    4.2401 O.3     1  UNL1        0.0000
     29 C          79.5986  118.5429    4.0538 C.3     1  UNL1        0.0000
     30 C          80.8457  119.0379    3.3044 C.3     1  UNL1        0.0000
     31 C          81.5196  118.4299   -1.2740 C.3     1  UNL1        0.0000
     32 C          82.9578  118.4990   -0.7869 C.3     1  UNL1        0.0000
     33 C          82.8769  118.9207    0.6685 C.3     1  UNL1        0.0000
     34 C          81.9603  118.0093    1.4592 C.3     1  UNL1        0.0000
     35 O          81.4650  116.9400    0.6830 O.3     1  UNL1        0.0000
     36 C          80.7939  117.3181   -0.4908 C.3     1  UNL1        0.0000
     37 O          77.8785  120.6786   -3.9197 O.3     1  UNL1        0.0000
     38 O          78.7616  118.1951   -3.8173 O.3     1  UNL1        0.0000
     39 O          81.4431  119.2376   -6.0063 O.3     1  UNL1        0.0000
     40 O          81.3905  118.1567   -2.6359 O.3     1  UNL1        0.0000
     41 C          80.5345  116.0368   -1.2799 C.3     1  UNL1        0.0000
     42 O          83.7284  119.4531   -1.4711 O.3     1  UNL1        0.0000
     43 O          84.1745  118.9173    1.2130 O.3     1  UNL1        0.0000
     44 O          80.8091  118.6692    1.9504 O.3     1  UNL1        0.0000
     45 C          78.9042  117.3407    3.4254 C.3     1  UNL1        0.0000
     46 O          82.3041  120.9518    3.1854 O.3     1  UNL1        0.0000
     47 O          80.7082  122.4132    4.8502 O.3     1  UNL1        0.0000
     48 O          78.1896  121.5726    5.2467 O.3     1  UNL1        0.0000
     49 C          75.4013  121.1721    4.8490 C.3     1  UNL1        0.0000
     50 O          75.8384  119.9966    5.5050 O.3     1  UNL1        0.0000
     51 O          78.2860  117.6987    2.2055 O.3     1  UNL1        0.0000
     52 O          78.7000  124.2712    4.5146 O.3     1  UNL1        0.0000
     53 O          76.5137  125.6339    3.5456 O.3     1  UNL1        0.0000
     54 O          74.6071  124.1360    2.0192 O.3     1  UNL1        0.0000
     55 C          72.6521  123.3395    0.1632 C.3     1  UNL1        0.0000
     56 O          71.9007  122.5791   -0.7624 O.3     1  UNL1        0.0000
     57 O          76.0327  126.2555    0.8416 O.3     1  UNL1        0.0000
     58 O          75.4935  126.1978   -2.1736 O.3     1  UNL1        0.0000
     59 O          75.7603  123.8139   -3.2559 O.3     1  UNL1        0.0000
     60 C          81.9528  121.6549   -4.1351 C.3     1  UNL1        0.0000
     61 O          81.5655  122.9299   -3.6575 O.3     1  UNL1        0.0000
     62 C          74.8827  122.4710   -6.5826 C.3     1  UNL1        0.0000
     63 O          75.4266  123.0357   -7.7607 O.3     1  UNL1        0.0000
     64 O          81.7270  115.5985   -1.9000 O.3     1  UNL1        0.0000
     65 O          73.8278  121.0578   -2.9319 O.3     1  UNL1        0.0000
     66 O          75.7106  119.1251   -3.6871 O.3     1  UNL1        0.0000
     67 H          76.0700  123.8832   -5.5800 H       1  UNL1        0.0000
     68 H          74.0623  123.1394   -4.1298 H       1  UNL1        0.0000
     69 H          75.7878  121.3388   -2.4745 H       1  UNL1        0.0000
     70 H          74.8057  120.1884   -5.1256 H       1  UNL1        0.0000
     71 H          77.1573  120.0720   -5.7883 H       1  UNL1        0.0000
     72 H          79.4578  121.1792   -5.1655 H       1  UNL1        0.0000
     73 H          78.9318  118.8124   -5.7348 H       1  UNL1        0.0000
     74 H          81.0140  117.5642   -4.9814 H       1  UNL1        0.0000
     75 H          82.7546  119.0833   -3.8224 H       1  UNL1        0.0000
     76 H          81.7034  120.8451   -2.2500 H       1  UNL1        0.0000
     77 H          76.2894  123.0550   -1.4351 H       1  UNL1        0.0000
     78 H          74.4002  122.1096   -0.0417 H       1  UNL1        0.0000
     79 H          76.0911  123.5513    0.7104 H       1  UNL1        0.0000
     80 H          74.2544  125.8781   -0.0558 H       1  UNL1        0.0000
     81 H          77.0430  125.2884   -1.2194 H       1  UNL1        0.0000
     82 H          77.3726  124.2774    2.2999 H       1  UNL1        0.0000
     83 H          74.8237  123.6113    3.9583 H       1  UNL1        0.0000
     84 H          76.5607  120.5092    3.1878 H       1  UNL1        0.0000
     85 H          78.3976  122.0494    3.2344 H       1  UNL1        0.0000
     86 H          76.9018  123.7776    5.3077 H       1  UNL1        0.0000
     87 H          80.3484  121.0607    2.6247 H       1  UNL1        0.0000
     88 H          81.2757  120.5908    5.5161 H       1  UNL1        0.0000
     89 H          79.1873  120.0892    6.1567 H       1  UNL1        0.0000
     90 H          79.9209  118.1911    5.0692 H       1  UNL1        0.0000
     91 H          81.7281  118.5936    3.8204 H       1  UNL1        0.0000
     92 H          80.9742  119.3708   -1.0373 H       1  UNL1        0.0000
     93 H          83.4795  117.5230   -0.9100 H       1  UNL1        0.0000
     94 H          82.5294  119.9789    0.7205 H       1  UNL1        0.0000
     95 H          82.5164  117.5068    2.2823 H       1  UNL1        0.0000
     96 H          79.7821  117.6954   -0.1998 H       1  UNL1        0.0000
     97 H          77.8590  118.5059   -3.6886 H       1  UNL1        0.0000
     98 H          82.2426  118.7714   -6.2612 H       1  UNL1        0.0000
     99 H          80.1712  115.2155   -0.6206 H       1  UNL1        0.0000
    100 H          79.7831  116.1849   -2.0865 H       1  UNL1        0.0000
    101 H          84.5799  119.5070   -1.0280 H       1  UNL1        0.0000
    102 H          84.1937  119.4830    1.9895 H       1  UNL1        0.0000
    103 H          79.6257  116.5165    3.2216 H       1  UNL1        0.0000
    104 H          78.0996  116.9593    4.0944 H       1  UNL1        0.0000
    105 H          82.3747  121.8879    3.3989 H       1  UNL1        0.0000
    106 H          79.8811  122.8658    5.0122 H       1  UNL1        0.0000
    107 H          74.3600  120.9773    4.5046 H       1  UNL1        0.0000
    108 H          75.3791  121.9888    5.6019 H       1  UNL1        0.0000
    109 H          76.7912  120.0288    5.6255 H       1  UNL1        0.0000
    110 H          78.9680  117.8100    1.5405 H       1  UNL1        0.0000
    111 H          78.5428  125.2198    4.5107 H       1  UNL1        0.0000
    112 H          76.1561  126.1003    2.7873 H       1  UNL1        0.0000
    113 H          72.3153  124.3971    0.0819 H       1  UNL1        0.0000
    114 H          72.4014  122.9540    1.1765 H       1  UNL1        0.0000
    115 H          70.9667  122.6368   -0.5466 H       1  UNL1        0.0000
    116 H          76.1959  127.0620    0.3462 H       1  UNL1        0.0000
    117 H          75.7169  125.9528   -3.0748 H       1  UNL1        0.0000
    118 H          83.0657  121.5954   -4.0839 H       1  UNL1        0.0000
    119 H          81.6452  121.6128   -5.2002 H       1  UNL1        0.0000
    120 H          80.6085  122.9283   -3.5544 H       1  UNL1        0.0000
    121 H          74.7786  121.3846   -6.7844 H       1  UNL1        0.0000
    122 H          73.8651  122.9073   -6.4646 H       1  UNL1        0.0000
    123 H          74.8622  122.8191   -8.5076 H       1  UNL1        0.0000
    124 H          81.9026  116.1772   -2.6474 H       1  UNL1        0.0000
    125 H          73.4937  121.6583   -2.2589 H       1  UNL1        0.0000
    126 H          74.8734  118.9185   -3.2623 H       1  UNL1        0.0000
@<TRIPOS>BOND
     1     1     2     1
     2     1     6     1
     3     1    62     1
     4     1    67     1
     5     2     3     1
     6     2    59     1
     7     2    68     1
     8     3     4     1
     9     3    65     1
    10     3    69     1
    11     4     5     1
    12     4    66     1
    13     4    70     1
    14     5     6     1
    15     5    37     1
    16     5    71     1
    17     7     8     1
    18     7    12     1
    19     7    37     1
    20     7    72     1
    21     8     9     1
    22     8    38     1
    23     8    73     1
    24     9    10     1
    25     9    39     1
    26     9    74     1
    27    10    11     1
    28    10    40     1
    29    10    75     1
    30    11    12     1
    31    11    60     1
    32    11    76     1
    33    13    14     1
    34    13    18     1
    35    13    59     1
    36    13    77     1
    37    14    15     1
    38    15    16     1
    39    15    55     1
    40    15    78     1
    41    16    17     1
    42    16    54     1
    43    16    79     1
    44    17    18     1
    45    17    57     1
    46    17    80     1
    47    18    58     1
    48    18    81     1
    49    19    20     1
    50    19    24     1
    51    19    53     1
    52    19    82     1
    53    20    21     1
    54    20    54     1
    55    20    83     1
    56    21    22     1
    57    22    23     1
    58    22    49     1
    59    22    84     1
    60    23    24     1
    61    23    48     1
    62    23    85     1
    63    24    52     1
    64    24    86     1
    65    25    26     1
    66    25    30     1
    67    25    46     1
    68    25    87     1
    69    26    27     1
    70    26    47     1
    71    26    88     1
    72    27    28     1
    73    27    48     1
    74    27    89     1
    75    28    29     1
    76    29    30     1
    77    29    45     1
    78    29    90     1
    79    30    44     1
    80    30    91     1
    81    31    32     1
    82    31    36     1
    83    31    40     1
    84    31    92     1
    85    32    33     1
    86    32    42     1
    87    32    93     1
    88    33    34     1
    89    33    43     1
    90    33    94     1
    91    34    35     1
    92    34    44     1
    93    34    95     1
    94    35    36     1
    95    36    41     1
    96    36    96     1
    97    38    97     1
    98    39    98     1
    99    41    64     1
   100    41    99     1
   101    41   100     1
   102    42   101     1
   103    43   102     1
   104    45    51     1
   105    45   103     1
   106    45   104     1
   107    46   105     1
   108    47   106     1
   109    49    50     1
   110    49   107     1
   111    49   108     1
   112    50   109     1
   113    51   110     1
   114    52   111     1
   115    53   112     1
   116    55    56     1
   117    55   113     1
   118    55   114     1
   119    56   115     1
   120    57   116     1
   121    58   117     1
   122    60    61     1
   123    60   118     1
   124    60   119     1
   125    61   120     1
   126    62    63     1
   127    62   121     1
   128    62   122     1
   129    63   123     1
   130    64   124     1
   131    65   125     1
   132    66   126     1
