###
### Created by PolyChef-cpp17 on Thu Mar 27 21:32:18 2025
###

@<TRIPOS>MOLECULE
NO_INFO
863 868 1 0 0
SMALL
USER_CHARGES


@<TRIPOS>ATOM
      1 C          48.0210  179.3683   -1.4609 C.3       0      M_A    0.0000
      2 C          47.5717  179.0234   -2.8929 C.3       0      M_A    0.0000
      3 C          47.6998  177.5096   -3.1330 C.3       0      M_A    0.0000
      4 C          49.1668  177.0926   -2.9426 C.3       0      M_A    0.0000
      5 C          49.6313  177.4192   -1.5074 C.3       0      M_A    0.0000
      6 C          49.4926  178.9394   -1.2897 C.3       0      M_A    0.0000
      7 C          48.7520  176.6999   -0.4556 C.3       0      M_A    0.0000
      8 C          47.2695  177.0819   -0.6734 C.3       0      M_A    0.0000
      9 C          46.8234  176.7565   -2.1183 C.3       0      M_A    0.0000
     10 C          47.1080  178.6122   -0.4632 C.3       0      M_A    0.0000
     11 N          47.3655  179.0311    0.9080 N.3       0      M_A    0.0000
     12 C          47.4895  180.3642    1.2708 C.2       0      M_A    0.0000
     13 O          48.5830  180.9136    1.3984 O.2       0      M_A    0.0000
     14 C          46.1681  181.1271    1.4757 C.3       0      M_A    0.0000
     15 H          47.9376  180.4503   -1.3032 H         0      M_A    0.0000
     16 H          48.1832  179.5716   -3.6201 H         0      M_A    0.0000
     17 H          46.5334  179.3416   -3.0480 H         0      M_A    0.0000
     18 H          47.3760  177.2697   -4.1519 H         0      M_A    0.0000
     19 H          49.2835  176.0231   -3.1532 H         0      M_A    0.0000
     20 H          49.8002  177.6213   -3.6661 H         0      M_A    0.0000
     21 H          50.6840  177.1325   -1.3925 H         0      M_A    0.0000
     22 H          50.1230  179.4782   -2.0082 H         0      M_A    0.0000
     23 H          49.8572  179.2106   -0.2918 H         0      M_A    0.0000
     24 H          49.0634  177.0394    0.5418 H         0      M_A    0.0000
     25 H          46.6306  176.5297    0.0260 H         0      M_A    0.0000
     26 H          45.7720  177.0402   -2.2534 H         0      M_A    0.0000
     27 H          46.8778  175.6775   -2.3049 H         0      M_A    0.0000
     28 H          46.0633  178.8855   -0.6663 H         0      M_A    0.0000
     29 H          47.8113  178.3815    1.5598 H         0      M_A    0.0000
     30 H          45.8109  180.9103    2.4874 H         0      M_A    0.0000
     31 H          45.4426  180.7390    0.7533 H         0      M_A    0.0000
     32 C          46.3068  182.6851    1.2851 C.3       1      M_B    0.0000
     33 C          46.2308  183.1076   -0.1768 C.3       1      M_B    0.0000
     34 O          46.5757  184.4888   -0.2725 O.3       1      M_B    0.0000
     35 H          45.4976  183.1721    1.8410 H         1      M_B    0.0000
     36 H          47.2561  183.0132    1.7235 H         1      M_B    0.0000
     37 H          46.9048  182.5072   -0.8024 H         1      M_B    0.0000
     38 H          45.1987  182.9539   -0.5220 H         1      M_B    0.0000
     39 C          45.4213  185.2980   -0.1996 C.3       2      M_B    0.0000
     40 C          45.6778  186.7301   -0.6520 C.3       2      M_B    0.0000
     41 O          45.3462  187.6142    0.4178 O.3       2      M_B    0.0000
     42 H          44.6499  184.8534   -0.8386 H         2      M_B    0.0000
     43 H          45.0462  185.2892    0.8301 H         2      M_B    0.0000
     44 H          46.7253  186.8746   -0.9485 H         2      M_B    0.0000
     45 H          45.0343  186.9332   -1.5195 H         2      M_B    0.0000
     46 C          45.2943  188.9498   -0.0361 C.3       3      M_B    0.0000
     47 C          46.5505  189.3628   -0.7928 C.3       3      M_B    0.0000
     48 O          46.6522  190.7858   -0.7686 O.3       3      M_B    0.0000
     49 H          44.4272  189.0536   -0.6981 H         3      M_B    0.0000
     50 H          45.1375  189.6110    0.8237 H         3      M_B    0.0000
     51 H          47.4499  188.9137   -0.3506 H         3      M_B    0.0000
     52 H          46.4540  189.0112   -1.8297 H         3      M_B    0.0000
     53 C          45.3709  191.3777   -0.7435 C.3       4      M_B    0.0000
     54 C          45.4272  192.8998   -0.7061 C.3       4      M_B    0.0000
     55 O          44.3762  193.3760    0.1333 O.3       4      M_B    0.0000
     56 H          44.8294  191.0615   -1.6422 H         4      M_B    0.0000
     57 H          44.8221  190.9991    0.1262 H         4      M_B    0.0000
     58 H          46.3970  193.2554   -0.3331 H         4      M_B    0.0000
     59 H          45.2859  193.2707   -1.7310 H         4      M_B    0.0000
     60 C          44.0643  194.7188   -0.1701 C.3       5      M_B    0.0000
     61 C          45.2536  195.6539    0.0106 C.3       5      M_B    0.0000
     62 O          44.7741  196.9959    0.0806 O.3       5      M_B    0.0000
     63 H          43.7272  194.7657   -1.2118 H         5      M_B    0.0000
     64 H          43.2310  195.0417    0.4642 H         5      M_B    0.0000
     65 H          45.8208  195.4091    0.9186 H         5      M_B    0.0000
     66 H          45.9140  195.5365   -0.8602 H         5      M_B    0.0000
     67 C          45.6932  197.8195    0.7659 C.3       6      M_B    0.0000
     68 C          45.0815  199.1437    1.2059 C.3       6      M_B    0.0000
     69 O          45.4285  200.1472    0.2528 O.3       6      M_B    0.0000
     70 H          46.0468  197.2771    1.6501 H         6      M_B    0.0000
     71 H          46.5588  198.0006    0.1184 H         6      M_B    0.0000
     72 H          43.9893  199.0702    1.2942 H         6      M_B    0.0000
     73 H          45.4984  199.4007    2.1898 H         6      M_B    0.0000
     74 C          44.6239  201.2948    0.4206 C.3       7      M_B    0.0000
     75 C          44.7481  202.2747   -0.7395 C.3       7      M_B    0.0000
     76 O          44.3354  203.5658   -0.2941 O.3       7      M_B    0.0000
     77 H          43.5801  200.9723    0.5066 H         7      M_B    0.0000
     78 H          44.8987  201.7866    1.3607 H         7      M_B    0.0000
     79 H          45.7783  202.3186   -1.1176 H         7      M_B    0.0000
     80 H          44.0897  201.9289   -1.5488 H         7      M_B    0.0000
     81 C          45.2372  204.0750    0.6652 C.3       8      M_B    0.0000
     82 C          44.7682  205.3913    1.2726 C.3       8      M_B    0.0000
     83 O          45.3292  206.4672    0.5219 O.3       8      M_B    0.0000
     84 H          45.3457  203.3313    1.4627 H         8      M_B    0.0000
     85 H          46.2189  204.2050    0.1956 H         8      M_B    0.0000
     86 H          43.6724  205.4639    1.2728 H         8      M_B    0.0000
     87 H          45.1247  205.4327    2.3114 H         8      M_B    0.0000
     88 C          44.5383  207.6296    0.6477 C.3       9      M_B    0.0000
     89 C          44.7783  208.6286   -0.4774 C.3       9      M_B    0.0000
     90 O          44.5284  209.9435    0.0171 O.3       9      M_B    0.0000
     91 H          43.4843  207.3297    0.6413 H         9      M_B    0.0000
     92 H          44.7454  208.0967    1.6173 H         9      M_B    0.0000
     93 H          45.8049  208.5598   -0.8614 H         9      M_B    0.0000
     94 H          44.0800  208.3959   -1.2936 H         9      M_B    0.0000
     95 C          44.4004  210.8615   -1.0475 C.3      10      M_B    0.0000
     96 C          45.1956  212.1410   -0.8193 C.3      10      M_B    0.0000
     97 O          44.2818  213.2252   -0.6599 O.3      10      M_B    0.0000
     98 H          44.7574  210.3767   -1.9632 H        10      M_B    0.0000
     99 H          43.3393  211.0968   -1.1876 H        10      M_B    0.0000
    100 H          45.8403  212.0590    0.0659 H        10      M_B    0.0000
    101 H          45.8282  212.3103   -1.7020 H        10      M_B    0.0000
    102 C          44.9009  214.3065    0.0035 C.3      11      M_B    0.0000
    103 C          44.6099  215.6472   -0.6592 C.3      11      M_B    0.0000
    104 O          45.5545  216.6062   -0.1860 O.3      11      M_B    0.0000
    105 H          44.5345  214.3306    1.0361 H        11      M_B    0.0000
    106 H          45.9819  214.1297    0.0381 H        11      M_B    0.0000
    107 H          44.6652  215.5730   -1.7535 H        11      M_B    0.0000
    108 H          43.5924  215.9523   -0.3772 H        11      M_B    0.0000
    109 C          45.2145  217.9026   -0.6288 C.3      12      M_B    0.0000
    110 C          46.4143  218.8404   -0.6786 C.3      12      M_B    0.0000
    111 O          46.0697  220.0596   -0.0224 O.3      12      M_B    0.0000
    112 H          44.7828  217.8200   -1.6326 H        12      M_B    0.0000
    113 H          44.4427  218.3126    0.0326 H        12      M_B    0.0000
    114 H          47.2940  218.3906   -0.1990 H        12      M_B    0.0000
    115 H          46.6494  219.0361   -1.7342 H        12      M_B    0.0000
    116 C          47.1667  220.9479   -0.0110 C.3      13      M_B    0.0000
    117 C          46.7805  222.3534    0.4325 C.3      13      M_B    0.0000
    118 O          47.8766  223.2308    0.1786 O.3      13      M_B    0.0000
    119 H          47.9226  220.5508    0.6760 H        13      M_B    0.0000
    120 H          47.6102  220.9771   -1.0128 H        13      M_B    0.0000
    121 H          45.8849  222.7076   -0.0952 H        13      M_B    0.0000
    122 H          46.5661  222.3232    1.5101 H        13      M_B    0.0000
    123 C          48.9021  223.0370    1.1291 C.3      14      M_B    0.0000
    124 C          49.7137  224.3009    1.3842 C.3      14      M_B    0.0000
    125 O          50.8759  224.2732    0.5570 O.3      14      M_B    0.0000
    126 H          48.4417  222.7114    2.0687 H        14      M_B    0.0000
    127 H          49.5587  222.2306    0.7833 H        14      M_B    0.0000
    128 H          49.1245  225.2039    1.1751 H        14      M_B    0.0000
    129 H          50.0072  224.3087    2.4433 H        14      M_B    0.0000
    130 C          51.9430  224.9632    1.1718 C.3      15      M_B    0.0000
    131 C          51.8515  226.4727    0.9863 C.3      15      M_B    0.0000
    132 O          53.0766  226.9397    0.4235 O.3      15      M_B    0.0000
    133 H          51.9287  224.7326    2.2430 H        15      M_B    0.0000
    134 H          52.8891  224.5898    0.7636 H        15      M_B    0.0000
    135 H          51.0102  226.7456    0.3353 H        15      M_B    0.0000
    136 H          51.6951  226.9279    1.9744 H        15      M_B    0.0000
    137 C          53.4156  228.2063    0.9464 C.3      16      M_B    0.0000
    138 C          54.1779  229.0693   -0.0514 C.3      16      M_B    0.0000
    139 O          55.3577  229.5647    0.5798 O.3      16      M_B    0.0000
    140 H          52.4897  228.7195    1.2295 H        16      M_B    0.0000
    141 H          54.0105  228.0670    1.8562 H        16      M_B    0.0000
    142 H          54.4437  228.4998   -0.9520 H        16      M_B    0.0000
    143 H          53.5284  229.9068   -0.3425 H        16      M_B    0.0000
    144 C          56.3757  229.7908   -0.3717 C.3      17      M_B    0.0000
    145 C          57.6199  230.4246    0.2380 C.3      17      M_B    0.0000
    146 O          58.1448  231.3797   -0.6829 O.3      17      M_B    0.0000
    147 H          56.6470  228.8280   -0.8191 H        17      M_B    0.0000
    148 H          55.9800  230.4290   -1.1699 H        17      M_B    0.0000
    149 H          57.3928  230.9110    1.1960 H        17      M_B    0.0000
    150 H          58.3566  229.6279    0.4127 H        17      M_B    0.0000
    151 C          59.1953  232.1162   -0.0939 C.3      18      M_B    0.0000
    152 C          60.3261  232.4117   -1.0712 C.3      18      M_B    0.0000
    153 O          61.4644  232.8545   -0.3335 O.3      18      M_B    0.0000
    154 H          58.7852  233.0628    0.2759 H        18      M_B    0.0000
    155 H          59.5784  231.5598    0.7691 H        18      M_B    0.0000
    156 H          60.5843  231.5244   -1.6646 H        18      M_B    0.0000
    157 H          59.9884  233.2056   -1.7522 H        18      M_B    0.0000
    158 C          62.0941  231.7688    0.3125 C.3      19      M_B    0.0000
    159 C          63.2970  232.1968    1.1439 C.3      19      M_B    0.0000
    160 O          64.4497  232.2187    0.3034 O.3      19      M_B    0.0000
    161 H          61.3596  231.2865    0.9674 H        19      M_B    0.0000
    162 H          62.3992  231.0352   -0.4424 H        19      M_B    0.0000
    163 H          63.1407  233.1863    1.5940 H        19      M_B    0.0000
    164 H          63.4335  231.4607    1.9486 H        19      M_B    0.0000
    165 C          64.6420  233.5042   -0.2471 C.3      20      M_B    0.0000
    166 C          66.1132  233.8382   -0.4607 C.3      20      M_B    0.0000
    167 O          66.3998  235.0770    0.1867 O.3      20      M_B    0.0000
    168 H          64.1219  233.5461   -1.2107 H        20      M_B    0.0000
    169 H          64.1790  234.2461    0.4134 H        20      M_B    0.0000
    170 H          66.7646  233.0474   -0.0653 H        20      M_B    0.0000
    171 H          66.2874  233.9310   -1.5419 H        20      M_B    0.0000
    172 C          67.7697  235.3967    0.0690 C.3      21      M_B    0.0000
    173 C          68.6686  234.4125    0.8072 C.3      21      M_B    0.0000
    174 O          70.0296  234.7645    0.5635 O.3      21      M_B    0.0000
    175 H          68.0326  235.3930   -0.9948 H        21      M_B    0.0000
    176 H          67.9310  236.4122    0.4482 H        21      M_B    0.0000
    177 H          68.4661  234.4176    1.8866 H        21      M_B    0.0000
    178 H          68.4654  233.4061    0.4149 H        21      M_B    0.0000
    179 C          70.7341  233.6769    0.0035 C.3      22      M_B    0.0000
    180 C          72.2048  233.6618    0.4010 C.3      22      M_B    0.0000
    181 O          72.9951  233.9175   -0.7591 O.3      22      M_B    0.0000
    182 H          70.2613  232.7493    0.3455 H        22      M_B    0.0000
    183 H          70.6388  233.7163   -1.0876 H        22      M_B    0.0000
    184 H          72.4181  234.4119    1.1744 H        22      M_B    0.0000
    185 H          72.4386  232.6655    0.8019 H        22      M_B    0.0000
    186 C          74.2494  233.2776   -0.6600 C.3      23      M_B    0.0000
    187 C          74.8396  233.3549    0.7426 C.3      23      M_B    0.0000
    188 O          76.2519  233.5271    0.6358 O.3      23      M_B    0.0000
    189 H          74.1203  232.2251   -0.9366 H        23      M_B    0.0000
    190 H          74.9368  233.7300   -1.3838 H        23      M_B    0.0000
    191 H          74.4018  234.1830    1.3159 H        23      M_B    0.0000
    192 H          74.6148  232.4109    1.2587 H        23      M_B    0.0000
    193 C          76.7306  232.9874   -0.5775 C.3      24      M_B    0.0000
    194 C          78.0318  232.2139   -0.4041 C.3      24      M_B    0.0000
    195 O          79.0997  232.9866   -0.9501 O.3      24      M_B    0.0000
    196 H          75.9648  232.3142   -0.9792 H        24      M_B    0.0000
    197 H          76.8690  233.8015   -1.2980 H        24      M_B    0.0000
    198 H          78.2288  231.9944    0.6538 H        24      M_B    0.0000
    199 H          77.9385  231.2645   -0.9499 H        24      M_B    0.0000
    200 C          80.3373  232.5852   -0.4027 C.3      25      M_B    0.0000
    201 C          81.2492  231.9272   -1.4308 C.3      25      M_B    0.0000
    202 O          82.2725  231.2099   -0.7423 O.3      25      M_B    0.0000
    203 H          80.8368  233.4722    0.0031 H        25      M_B    0.0000
    204 H          80.1507  231.8980    0.4304 H        25      M_B    0.0000
    205 H          80.6885  231.2469   -2.0858 H        25      M_B    0.0000
    206 H          81.6963  232.7206   -2.0461 H        25      M_B    0.0000
    207 C          82.6550  231.8910    0.4336 C.3      26      M_B    0.0000
    208 C          84.1305  231.7073    0.7658 C.3      26      M_B    0.0000
    209 O          84.2837  230.5055    1.5194 O.3      26      M_B    0.0000
    210 H          82.4496  232.9583    0.2939 H        26      M_B    0.0000
    211 H          82.0345  231.5388    1.2655 H        26      M_B    0.0000
    212 H          84.7430  231.6611   -0.1446 H        26      M_B    0.0000
    213 H          84.4541  232.5698    1.3653 H        26      M_B    0.0000
    214 C          85.4641  230.5478    2.2924 C.3      27      M_B    0.0000
    215 C          86.7032  230.1603    1.4949 C.3      27      M_B    0.0000
    216 O          86.9403  228.7639    1.6676 O.3      27      M_B    0.0000
    217 H          85.5882  231.5677    2.6735 H        27      M_B    0.0000
    218 H          85.3475  229.8821    3.1551 H        27      M_B    0.0000
    219 H          86.5814  230.3921    0.4283 H        27      M_B    0.0000
    220 H          87.5535  230.7363    1.8862 H        27      M_B    0.0000
    221 C          86.2071  228.0124    0.7241 C.3      28      M_B    0.0000
    222 C          86.8830  226.6938    0.3695 C.3      28      M_B    0.0000
    223 O          87.6823  226.8883   -0.7962 O.3      28      M_B    0.0000
    224 H          85.2169  227.8052    1.1456 H        28      M_B    0.0000
    225 H          86.0646  228.6177   -0.1783 H        28      M_B    0.0000
    226 H          87.5065  226.3286    1.1966 H        28      M_B    0.0000
    227 H          86.0973  225.9527    0.1662 H        28      M_B    0.0000
    228 C          88.3280  225.6884   -1.1649 C.3      29      M_B    0.0000
    229 C          89.3168  225.2051   -0.1113 C.3      29      M_B    0.0000
    230 O          90.2164  224.2790   -0.7187 O.3      29      M_B    0.0000
    231 H          87.5621  224.9194   -1.3166 H        29      M_B    0.0000
    232 H          88.8407  225.8407   -2.1215 H        29      M_B    0.0000
    233 H          89.8770  226.0425    0.3257 H        29      M_B    0.0000
    234 H          88.7476  224.7071    0.6862 H        29      M_B    0.0000
    235 C          91.1465  223.7938    0.2258 C.3      30      M_B    0.0000
    236 C          91.9834  222.6400   -0.3125 C.3      30      M_B    0.0000
    237 O          91.9258  221.5598    0.6179 O.3      30      M_B    0.0000
    238 H          91.8118  224.6180    0.5067 H        30      M_B    0.0000
    239 H          90.6068  223.4800    1.1266 H        30      M_B    0.0000
    240 H          91.6234  222.3092   -1.2959 H        30      M_B    0.0000
    241 H          93.0198  222.9910   -0.4161 H        30      M_B    0.0000
    242 C          92.6636  221.8638    1.7823 C.3      31      M_B    0.0000
    243 C          94.1651  221.9177    1.5295 C.3      31      M_B    0.0000
    244 O          94.7218  220.6328    1.8036 O.3      31      M_B    0.0000
    245 H          92.3284  222.8378    2.1564 H        31      M_B    0.0000
    246 H          92.4373  221.1162    2.5511 H        31      M_B    0.0000
    247 H          94.3864  222.2105    0.4943 H        31      M_B    0.0000
    248 H          94.5977  222.6663    2.2080 H        31      M_B    0.0000
    249 C          94.9425  219.9185    0.6062 C.3      32      M_B    0.0000
    250 C          93.7732  219.0142    0.2370 C.3      32      M_B    0.0000
    251 O          94.2629  217.6876    0.0469 O.3      32      M_B    0.0000
    252 H          95.1038  220.6425   -0.2004 H        32      M_B    0.0000
    253 H          95.8589  219.3264    0.7100 H        32      M_B    0.0000
    254 H          92.9998  219.0217    1.0167 H        32      M_B    0.0000
    255 H          93.3349  219.3898   -0.6983 H        32      M_B    0.0000
    256 C          93.4380  216.7515    0.7071 C.3      33      M_B    0.0000
    257 C          94.1214  215.4046    0.9083 C.3      33      M_B    0.0000
    258 O          93.4938  214.4422    0.0623 O.3      33      M_B    0.0000
    259 H          93.1654  217.1641    1.6851 H        33      M_B    0.0000
    260 H          92.5146  216.6235    0.1309 H        33      M_B    0.0000
    261 H          95.1943  215.4625    0.6811 H        33      M_B    0.0000
    262 H          93.9989  215.1150    1.9614 H        33      M_B    0.0000
    263 C          93.7282  213.1331    0.5355 C.3      34      M_B    0.0000
    264 C          95.0860  212.5884    0.1097 C.3      34      M_B    0.0000
    265 O          95.0189  211.1635    0.0814 O.3      34      M_B    0.0000
    266 H          93.6764  213.1496    1.6300 H        34      M_B    0.0000
    267 H          92.9284  212.4766    0.1743 H        34      M_B    0.0000
    268 H          95.3790  212.9710   -0.8772 H        34      M_B    0.0000
    269 H          95.8304  212.9143    0.8497 H        34      M_B    0.0000
    270 C          96.2392  210.5976    0.5098 C.3      35      M_B    0.0000
    271 C          96.5831  209.3117   -0.2316 C.3      35      M_B    0.0000
    272 O          96.5819  208.2317    0.7008 O.3      35      M_B    0.0000
    273 H          97.0354  211.3316    0.3417 H        35      M_B    0.0000
    274 H          96.1835  210.4080    1.5877 H        35      M_B    0.0000
    275 H          95.8669  209.1118   -1.0398 H        35      M_B    0.0000
    276 H          97.5847  209.4286   -0.6688 H        35      M_B    0.0000
    277 C          96.6950  206.9940    0.0315 C.3      36      M_B    0.0000
    278 C          96.9720  205.8352    0.9812 C.3      36      M_B    0.0000
    279 O          97.5342  204.7566    0.2353 O.3      36      M_B    0.0000
    280 H          95.7557  206.8044   -0.5001 H        36      M_B    0.0000
    281 H          97.4921  207.0668   -0.7170 H        36      M_B    0.0000
    282 H          97.6567  206.1328    1.7866 H        36      M_B    0.0000
    283 H          96.0165  205.5250    1.4271 H        36      M_B    0.0000
    284 C          97.3442  203.5309    0.9092 C.3      37      M_B    0.0000
    285 C          98.5735  202.6325    0.8532 C.3      37      M_B    0.0000
    286 O          98.2100  201.3975    0.2382 O.3      37      M_B    0.0000
    287 H          97.1073  203.7486    1.9568 H        37      M_B    0.0000
    288 H          96.4807  203.0161    0.4729 H        37      M_B    0.0000
    289 H          99.3901  203.1063    0.2922 H        37      M_B    0.0000
    290 H          98.9110  202.4533    1.8837 H        37      M_B    0.0000
    291 C          99.1728  200.4017    0.5102 C.3      38      M_B    0.0000
    292 C         100.1749  200.2274   -0.6241 C.3      38      M_B    0.0000
    293 O         100.8675  198.9940   -0.4374 O.3      38      M_B    0.0000
    294 H          99.7102  200.6843    1.4225 H        38      M_B    0.0000
    295 H          98.6579  199.4545    0.7073 H        38      M_B    0.0000
    296 H          99.6768  200.2348   -1.6028 H        38      M_B    0.0000
    297 H         100.8844  201.0659   -0.5830 H        38      M_B    0.0000
    298 C         100.8081  198.5875    0.9131 C.3      39      M_B    0.0000
    299 C         101.9613  197.6708    1.3024 C.3      39      M_B    0.0000
    300 O         101.5694  196.3187    1.0700 O.3      39      M_B    0.0000
    301 H         100.8353  199.4840    1.5427 H        39      M_B    0.0000
    302 H          99.8505  198.0850    1.0908 H        39      M_B    0.0000
    303 H         102.8685  197.9035    0.7289 H        39      M_B    0.0000
    304 H         102.1705  197.8224    2.3707 H        39      M_B    0.0000
    305 C         102.4970  195.6676    0.2284 C.3      40      M_B    0.0000
    306 C         102.7989  194.2432    0.6770 C.3      40      M_B    0.0000
    307 O         104.0351  193.8324    0.0949 O.3      40      M_B    0.0000
    308 H         102.0819  195.6432   -0.7855 H        40      M_B    0.0000
    309 H         103.4208  196.2564    0.1957 H        40      M_B    0.0000
    310 H         102.8563  194.1720    1.7714 H        40      M_B    0.0000
    311 H         101.9844  193.5954    0.3236 H        40      M_B    0.0000
    312 C         104.5968  192.7597    0.8206 C.3      41      M_B    0.0000
    313 C         105.7627  192.1035    0.0917 C.3      41      M_B    0.0000
    314 O         105.7749  190.7121    0.4074 O.3      41      M_B    0.0000
    315 H         104.9482  193.1445    1.7846 H        41      M_B    0.0000
    316 H         103.8141  192.0198    1.0230 H        41      M_B    0.0000
    317 H         105.6843  192.2420   -0.9949 H        41      M_B    0.0000
    318 H         106.6916  192.5756    0.4415 H        41      M_B    0.0000
    319 C         106.9486  190.0992   -0.0819 C.3      42      M_B    0.0000
    320 C         106.8666  188.5779   -0.0690 C.3      42      M_B    0.0000
    321 O         108.1885  188.0492    0.0252 O.3      42      M_B    0.0000
    322 H         107.1103  190.4403   -1.1107 H        42      M_B    0.0000
    323 H         107.8015  190.4360    0.5183 H        42      M_B    0.0000
    324 H         106.2564  188.2170    0.7698 H        42      M_B    0.0000
    325 H         106.3995  188.2545   -1.0099 H        42      M_B    0.0000
    326 C         108.2923  186.8342   -0.6858 C.3      43      M_B    0.0000
    327 C         108.9986  185.7448    0.1116 C.3      43      M_B    0.0000
    328 O         110.0206  185.1715   -0.7024 O.3      43      M_B    0.0000
    329 H         107.2805  186.4957   -0.9361 H        43      M_B    0.0000
    330 H         108.8239  187.0177   -1.6265 H        43      M_B    0.0000
    331 H         109.4346  186.1450    1.0367 H        43      M_B    0.0000
    332 H         108.2549  184.9794    0.3745 H        43      M_B    0.0000
    333 C         110.8476  184.3194    0.0608 C.3      44      M_B    0.0000
    334 C         111.7107  183.4088   -0.8038 C.3      44      M_B    0.0000
    335 O         112.1472  182.3051   -0.0119 O.3      44      M_B    0.0000
    336 H         111.4982  184.9420    0.6853 H        44      M_B    0.0000
    337 H         110.2191  183.7200    0.7292 H        44      M_B    0.0000
    338 H         111.1571  183.0472   -1.6807 H        44      M_B    0.0000
    339 H         112.5779  183.9892   -1.1487 H        44      M_B    0.0000
    340 C         112.8243  182.7552    1.1420 C.3      45      M_B    0.0000
    341 C         114.2302  182.1800    1.2606 C.3      45      M_B    0.0000
    342 O         114.1495  180.8994    1.8845 O.3      45      M_B    0.0000
    343 H         112.8873  183.8484    1.0982 H        45      M_B    0.0000
    344 H         112.2330  182.4912    2.0262 H        45      M_B    0.0000
    345 H         114.7099  182.0897    0.2768 H        45      M_B    0.0000
    346 H         114.8259  182.8632    1.8822 H        45      M_B    0.0000
    347 C         114.3965  179.8716    0.9489 C.3      46      M_B    0.0000
    348 C         115.2674  178.7574    1.5158 C.3      46      M_B    0.0000
    349 O         115.8006  177.9972    0.4325 O.3      46      M_B    0.0000
    350 H         113.4332  179.4507    0.6393 H        46      M_B    0.0000
    351 H         114.8705  180.3061    0.0613 H        46      M_B    0.0000
    352 H         116.0836  179.1606    2.1301 H        46      M_B    0.0000
    353 H         114.6338  178.1181    2.1466 H        46      M_B    0.0000
    354 C         116.8030  177.1139    0.8879 C.3      47      M_B    0.0000
    355 C         117.4598  176.3354   -0.2452 C.3      47      M_B    0.0000
    356 O         118.0462  175.1512    0.2929 O.3      47      M_B    0.0000
    357 H         117.5675  177.7017    1.4085 H        47      M_B    0.0000
    358 H         116.3628  176.4221    1.6151 H        47      M_B    0.0000
    359 H         116.7323  176.0740   -1.0253 H        47      M_B    0.0000
    360 H         118.2388  176.9718   -0.6882 H        47      M_B    0.0000
    361 C         118.2178  174.1769   -0.7141 C.3      48      M_B    0.0000
    362 C         118.9310  172.9288   -0.2090 C.3      48      M_B    0.0000
    363 O         120.2239  172.8661   -0.8094 O.3      48      M_B    0.0000
    364 H         117.2282  173.8957   -1.0915 H        48      M_B    0.0000
    365 H         118.7773  174.6206   -1.5455 H        48      M_B    0.0000
    366 H         119.0243  172.9364    0.8852 H        48      M_B    0.0000
    367 H         118.3365  172.0536   -0.5064 H        48      M_B    0.0000
    368 C         120.7851  171.5803   -0.6534 C.3      49      M_B    0.0000
    369 C         121.9839  171.5722    0.2869 C.3      49      M_B    0.0000
    370 O         122.8035  170.4470   -0.0263 O.3      49      M_B    0.0000
    371 H         120.0118  170.9148   -0.2533 H        49      M_B    0.0000
    372 H         121.0759  171.1981   -1.6385 H        49      M_B    0.0000
    373 H         122.5672  172.4986    0.1996 H        49      M_B    0.0000
    374 H         121.6082  171.4876    1.3163 H        49      M_B    0.0000
    375 C         123.5558  170.0483    1.0997 C.3      50      M_B    0.0000
    376 C         124.9817  169.6480    0.7422 C.3      50      M_B    0.0000
    377 O         125.1185  168.2384    0.9159 O.3      50      M_B    0.0000
    378 H         123.5855  170.8854    1.8063 H        50      M_B    0.0000
    379 H         123.0424  169.2149    1.5925 H        50      M_B    0.0000
    380 H         125.2280  169.9253   -0.2916 H        50      M_B    0.0000
    381 H         125.6642  170.1776    1.4216 H        50      M_B    0.0000
    382 C         126.4789  167.8786    1.0269 C.3      51      M_B    0.0000
    383 C         127.1415  167.6595   -0.3275 C.3      51      M_B    0.0000
    384 O         128.3775  166.9755   -0.1270 O.3      51      M_B    0.0000
    385 H         127.0040  168.6815    1.5566 H        51      M_B    0.0000
    386 H         126.5575  166.9711    1.6363 H        51      M_B    0.0000
    387 H         126.4953  167.0797   -1.0000 H        51      M_B    0.0000
    388 H         127.3268  168.6445   -0.7787 H        51      M_B    0.0000
    389 C         128.9417  167.3190    1.1205 C.3      52      M_B    0.0000
    390 C         130.4385  167.5903    1.0341 C.3      52      M_B    0.0000
    391 O         131.1403  166.3909    1.3576 O.3      52      M_B    0.0000
    392 H         128.4357  168.2181    1.4899 H        52      M_B    0.0000
    393 H         128.7457  166.5102    1.8336 H        52      M_B    0.0000
    394 H         130.7254  167.9354    0.0318 H        52      M_B    0.0000
    395 H         130.6842  168.3765    1.7617 H        52      M_B    0.0000
    396 C         132.4046  166.6861    1.9118 C.3      53      M_B    0.0000
    397 C         133.3669  167.2859    0.8942 C.3      53      M_B    0.0000
    398 O         134.6087  166.5874    0.9716 O.3      53      M_B    0.0000
    399 H         132.2616  167.3982    2.7324 H        53      M_B    0.0000
    400 H         132.8286  165.7692    2.3369 H        53      M_B    0.0000
    401 H         132.9625  167.2226   -0.1248 H        53      M_B    0.0000
    402 H         133.5156  168.3446    1.1496 H        53      M_B    0.0000
    403 C         135.4110  166.8687   -0.1552 C.3      54      M_B    0.0000
    404 C         136.8993  166.8790    0.1706 C.3      54      M_B    0.0000
    405 O         137.4787  168.0638   -0.3739 O.3      54      M_B    0.0000
    406 H         135.2161  166.1032   -0.9148 H        54      M_B    0.0000
    407 H         135.1097  167.8362   -0.5728 H        54      M_B    0.0000
    408 H         137.0720  166.8396    1.2544 H        54      M_B    0.0000
    409 H         137.3549  165.9921   -0.2918 H        54      M_B    0.0000
    410 C         138.8797  167.9300   -0.4828 C.3      55      M_B    0.0000
    411 C         139.6345  168.8841    0.4345 C.3      55      M_B    0.0000
    412 O         140.8827  169.2123   -0.1738 O.3      55      M_B    0.0000
    413 H         139.1469  166.8990   -0.2248 H        55      M_B    0.0000
    414 H         139.1724  168.0987   -1.5254 H        55      M_B    0.0000
    415 H         139.0563  169.7984    0.6239 H        55      M_B    0.0000
    416 H         139.8068  168.3712    1.3912 H        55      M_B    0.0000
    417 C         141.3220  170.4871    0.2440 C.3      56      M_B    0.0000
    418 C         142.6377  170.8976   -0.4054 C.3      56      M_B    0.0000
    419 O         143.4716  171.4936    0.5872 O.3      56      M_B    0.0000
    420 H         140.5497  171.2190   -0.0182 H        56      M_B    0.0000
    421 H         141.4239  170.4874    1.3352 H        56      M_B    0.0000
    422 H         143.1472  170.0357   -0.8567 H        56      M_B    0.0000
    423 H         142.4138  171.6283   -1.1953 H        56      M_B    0.0000
    424 C         144.8347  171.2905    0.2818 C.3      57      M_B    0.0000
    425 C         145.6971  172.5039    0.6068 C.3      57      M_B    0.0000
    426 O         146.6216  172.7073   -0.4608 O.3      57      M_B    0.0000
    427 H         145.1919  170.4319    0.8615 H        57      M_B    0.0000
    428 H         144.9265  171.0363   -0.7803 H        57      M_B    0.0000
    429 H         145.0840  173.4037    0.7502 H        57      M_B    0.0000
    430 H         146.2406  172.2950    1.5390 H        57      M_B    0.0000
    431 C         147.5892  173.6720   -0.1064 C.3      58      M_B    0.0000
    432 C         146.9693  174.9920    0.3348 C.3      58      M_B    0.0000
    433 O         147.9661  176.0107    0.2677 O.3      58      M_B    0.0000
    434 H         148.1921  173.2676    0.7146 H        58      M_B    0.0000
    435 H         148.2567  173.8356   -0.9601 H        58      M_B    0.0000
    436 H         146.1121  175.2622   -0.2963 H        58      M_B    0.0000
    437 H         146.6217  174.8751    1.3709 H        58      M_B    0.0000
    438 C         149.2496  175.4693    0.4961 C.3      59      M_B    0.0000
    439 C         150.2830  176.5333    0.8447 C.3      59      M_B    0.0000
    440 O         151.0879  176.7839   -0.3065 O.3      59      M_B    0.0000
    441 H         149.1781  174.7549    1.3241 H        59      M_B    0.0000
    442 H         149.5649  174.9151   -0.3952 H        59      M_B    0.0000
    443 H         149.8030  177.4633    1.1779 H        59      M_B    0.0000
    444 H         150.9075  176.1461    1.6620 H        59      M_B    0.0000
    445 C         152.1806  177.6158    0.0197 C.3      60      M_B    0.0000
    446 C         151.7480  178.9388    0.6393 C.3      60      M_B    0.0000
    447 O         152.6819  179.9487    0.2602 O.3      60      M_B    0.0000
    448 H         152.8197  177.0797    0.7305 H        60      M_B    0.0000
    449 H         152.7704  177.7984   -0.8858 H        60      M_B    0.0000
    450 H         150.7371  179.2206    0.3156 H        60      M_B    0.0000
    451 H         151.7480  178.8189    1.7318 H        60      M_B    0.0000
    452 C         152.1277  181.2344    0.4403 C.3      61      M_B    0.0000
    453 C         152.9178  182.3211   -0.2781 C.3      61      M_B    0.0000
    454 O         153.7233  183.0090    0.6778 O.3      61      M_B    0.0000
    455 H         151.1021  181.2230    0.0544 H        61      M_B    0.0000
    456 H         152.0770  181.4519    1.5133 H        61      M_B    0.0000
    457 H         153.5513  181.8984   -1.0694 H        61      M_B    0.0000
    458 H         152.2006  183.0175   -0.7348 H        61      M_B    0.0000
    459 C         154.7745  183.7015    0.0391 C.3      62      M_B    0.0000
    460 C         155.2814  184.8837    0.8558 C.3      62      M_B    0.0000
    461 O         155.7658  185.8839   -0.0390 O.3      62      M_B    0.0000
    462 H         155.5994  182.9987   -0.1233 H        62      M_B    0.0000
    463 H         154.4294  184.0424   -0.9437 H        62      M_B    0.0000
    464 H         154.4887  185.2999    1.4918 H        62      M_B    0.0000
    465 H         156.0988  184.5276    1.4984 H        62      M_B    0.0000
    466 C         156.9698  185.4686   -0.6477 C.3      63      M_B    0.0000
    467 C         158.1120  186.4514   -0.4224 C.3      63      M_B    0.0000
    468 O         158.0356  187.4765   -1.4118 O.3      63      M_B    0.0000
    469 H         157.2476  184.4947   -0.2291 H        63      M_B    0.0000
    470 H         156.7961  185.3320   -1.7212 H        63      M_B    0.0000
    471 H         158.0672  186.8936    0.5819 H        63      M_B    0.0000
    472 H         159.0585  185.9019   -0.5239 H        63      M_B    0.0000
    473 C         156.7350  188.0227   -1.4656 C.3      64      M_B    0.0000
    474 C         156.7079  189.5101   -1.1366 C.3      64      M_B    0.0000
    475 O         155.8674  189.7124   -0.0014 O.3      64      M_B    0.0000
    476 H         156.3415  187.8726   -2.4773 H        64      M_B    0.0000
    477 H         156.0896  187.4713   -0.7723 H        64      M_B    0.0000
    478 H         157.7165  189.8929   -0.9309 H        64      M_B    0.0000
    479 H         156.2987  190.0434   -2.0061 H        64      M_B    0.0000
    480 C         155.4638  191.0622    0.0868 C.3      65      M_B    0.0000
    481 C         156.6281  192.0345   -0.0556 C.3      65      M_B    0.0000
    482 O         156.1798  193.3409    0.3026 O.3      65      M_B    0.0000
    483 H         154.7365  191.2555   -0.7098 H        65      M_B    0.0000
    484 H         154.9566  191.2190    1.0456 H        65      M_B    0.0000
    485 H         157.4750  191.7403    0.5787 H        65      M_B    0.0000
    486 H         156.9533  192.0243   -1.1054 H        65      M_B    0.0000
    487 C         157.2442  194.1094    0.8212 C.3      66      M_B    0.0000
    488 C         156.9769  195.6077    0.7496 C.3      66      M_B    0.0000
    489 O         158.0926  196.2423    0.1265 O.3      66      M_B    0.0000
    490 H         157.3962  193.8226    1.8679 H        66      M_B    0.0000
    491 H         158.1602  193.8631    0.2723 H        66      M_B    0.0000
    492 H         156.0587  195.8239    0.1873 H        66      M_B    0.0000
    493 H         156.8580  195.9815    1.7763 H        66      M_B    0.0000
    494 C         157.7807  197.5751   -0.2181 C.3      67      M_B    0.0000
    495 C         158.6343  198.5911    0.5306 C.3      67      M_B    0.0000
    496 O         158.0573  199.8853    0.3635 O.3      67      M_B    0.0000
    497 H         157.9410  197.6974   -1.2953 H        67      M_B    0.0000
    498 H         156.7183  197.7543   -0.0173 H        67      M_B    0.0000
    499 H         158.7043  198.3454    1.5987 H        67      M_B    0.0000
    500 H         159.6442  198.5719    0.0973 H        67      M_B    0.0000
    501 C         157.4886  200.0163   -0.9218 C.3      68      M_B    0.0000
    502 C         157.7127  201.3970   -1.5258 C.3      68      M_B    0.0000
    503 O         156.6616  202.2608   -1.0956 O.3      68      M_B    0.0000
    504 H         157.9407  199.2619   -1.5755 H        68      M_B    0.0000
    505 H         156.4156  199.8020   -0.8587 H        68      M_B    0.0000
    506 H         158.6854  201.8110   -1.2282 H        68      M_B    0.0000
    507 H         157.6918  201.2970   -2.6201 H        68      M_B    0.0000
    508 C         157.1851  203.4678   -0.5839 C.3      69      M_B    0.0000
    509 C         157.9992  203.2632    0.6876 C.3      69      M_B    0.0000
    510 O         158.3835  204.5401    1.1952 O.3      69      M_B    0.0000
    511 H         157.8262  203.9162   -1.3512 H        69      M_B    0.0000
    512 H         156.3579  204.1613   -0.3946 H        69      M_B    0.0000
    513 H         157.4255  202.7139    1.4460 H        69      M_B    0.0000
    514 H         158.8928  202.6779    0.4288 H        69      M_B    0.0000
    515 C         158.6288  205.4441    0.1392 C.3      70      M_B    0.0000
    516 C         158.7006  206.8916    0.6092 C.3      70      M_B    0.0000
    517 O         158.2960  207.7415   -0.4631 O.3      70      M_B    0.0000
    518 H         159.5810  205.1726   -0.3305 H        70      M_B    0.0000
    519 H         157.8416  205.3311   -0.6148 H        70      M_B    0.0000
    520 H         158.0599  207.0602    1.4851 H        70      M_B    0.0000
    521 H         159.7418  207.1078    0.8869 H        70      M_B    0.0000
    522 C         157.9069  209.0083    0.0232 C.3      71      M_B    0.0000
    523 C         158.6149  210.1542   -0.6888 C.3      71      M_B    0.0000
    524 O         158.5308  211.3216    0.1273 O.3      71      M_B    0.0000
    525 H         156.8252  209.1126   -0.1183 H        71      M_B    0.0000
    526 H         158.1073  209.0520    1.0998 H        71      M_B    0.0000
    527 H         159.6667  209.9111   -0.8905 H        71      M_B    0.0000
    528 H         158.1031  210.3279   -1.6458 H        71      M_B    0.0000
    529 C         159.6514  212.1554   -0.0770 C.3      72      M_B    0.0000
    530 C         159.4584  213.5517    0.5013 C.3      72      M_B    0.0000
    531 O         159.4928  214.4979   -0.5662 O.3      72      M_B    0.0000
    532 H         160.5192  211.6869    0.4007 H        72      M_B    0.0000
    533 H         159.8564  212.2174   -1.1518 H        72      M_B    0.0000
    534 H         158.5073  213.6319    1.0446 H        72      M_B    0.0000
    535 H         160.2825  213.7466    1.2019 H        72      M_B    0.0000
    536 C         158.7751  215.6640   -0.2232 C.3      73      M_B    0.0000
    537 C         159.4685  216.9389   -0.6872 C.3      73      M_B    0.0000
    538 O         159.0000  218.0290    0.1052 O.3      73      M_B    0.0000
    539 H         157.7842  215.6060   -0.6878 H        73      M_B    0.0000
    540 H         158.6324  215.6864    0.8631 H        73      M_B    0.0000
    541 H         160.5602  216.8541   -0.6027 H        73      M_B    0.0000
    542 H         159.2080  217.1030   -1.7423 H        73      M_B    0.0000
    543 C         159.6279  219.2330   -0.2807 C.3      74      M_B    0.0000
    544 C         159.2042  220.4183    0.5777 C.3      74      M_B    0.0000
    545 O         159.4146  221.6189   -0.1640 O.3      74      M_B    0.0000
    546 H         160.7119  219.0976   -0.1941 H        74      M_B    0.0000
    547 H         159.4003  219.4301   -1.3345 H        74      M_B    0.0000
    548 H         158.1501  220.3401    0.8758 H        74      M_B    0.0000
    549 H         159.8274  220.4226    1.4831 H        74      M_B    0.0000
    550 C         158.5327  222.6332    0.2671 C.3      75      M_B    0.0000
    551 C         158.8390  223.9858   -0.3640 C.3      75      M_B    0.0000
    552 O         159.0801  224.9320    0.6764 O.3      75      M_B    0.0000
    553 H         157.5121  222.3366    0.0002 H        75      M_B    0.0000
    554 H         158.5830  222.7067    1.3594 H        75      M_B    0.0000
    555 H         159.7104  223.9286   -1.0299 H        75      M_B    0.0000
    556 H         157.9637  224.2919   -0.9540 H        75      M_B    0.0000
    557 C         159.6476  226.1144    0.1543 C.3      76      M_B    0.0000
    558 C         159.3294  227.3419    0.9990 C.3      76      M_B    0.0000
    559 O         159.6159  228.5112    0.2331 O.3      76      M_B    0.0000
    560 H         160.7346  225.9825    0.1098 H        76      M_B    0.0000
    561 H         159.2875  226.2584   -0.8707 H        76      M_B    0.0000
    562 H         158.2779  227.3480    1.3159 H        76      M_B    0.0000
    563 H         159.9673  227.3139    1.8935 H        76      M_B    0.0000
    564 C         158.8504  229.6064    0.6883 C.3      77      M_B    0.0000
    565 C         159.0857  230.8691   -0.1311 C.3      77      M_B    0.0000
    566 O         159.6074  231.8817    0.7283 O.3      77      M_B    0.0000
    567 H         157.7909  229.3329    0.6284 H        77      M_B    0.0000
    568 H         159.0872  229.7912    1.7423 H        77      M_B    0.0000
    569 H         159.7815  230.6842   -0.9604 H        77      M_B    0.0000
    570 H         158.1199  231.1903   -0.5459 H        77      M_B    0.0000
    571 C         160.0493  232.9935   -0.0209 C.3      78      M_B    0.0000
    572 C         160.3367  234.2113    0.8484 C.3      78      M_B    0.0000
    573 O         160.2634  235.3815    0.0352 O.3      78      M_B    0.0000
    574 H         160.9649  232.7079   -0.5510 H        78      M_B    0.0000
    575 H         159.2914  233.2380   -0.7738 H        78      M_B    0.0000
    576 H         159.6240  234.2862    1.6805 H        78      M_B    0.0000
    577 H         161.3500  234.1037    1.2603 H        78      M_B    0.0000
    578 C         160.0000  236.5221    0.8240 C.3      79      M_B    0.0000
    579 C         159.9934  237.8105    0.0107 C.3      79      M_B    0.0000
    580 O         160.7534  238.7960    0.7086 O.3      79      M_B    0.0000
    581 H         159.0203  236.3928    1.2977 H        79      M_B    0.0000
    582 H         160.7496  236.5832    1.6212 H        79      M_B    0.0000
    583 H         160.4123  237.6529   -0.9921 H        79      M_B    0.0000
    584 H         158.9509  238.1433   -0.0908 H        79      M_B    0.0000
    585 C         161.1358  239.8400   -0.1611 C.3      80      M_B    0.0000
    586 C         161.3141  241.1703    0.5599 C.3      80      M_B    0.0000
    587 O         161.0597  242.2285   -0.3627 O.3      80      M_B    0.0000
    588 H         162.0829  239.5608   -0.6366 H        80      M_B    0.0000
    589 H         160.3828  239.9373   -0.9514 H        80      M_B    0.0000
    590 H         160.6384  241.2520    1.4218 H        80      M_B    0.0000
    591 H         162.3516  241.2265    0.9184 H        80      M_B    0.0000
    592 C         160.7925  243.4340    0.3214 C.3      81      M_B    0.0000
    593 C         161.1798  244.6666   -0.4862 C.3      81      M_B    0.0000
    594 O         161.5332  245.7130    0.4170 O.3      81      M_B    0.0000
    595 H         159.7198  243.4729    0.5417 H        81      M_B    0.0000
    596 H         161.3285  243.4259    1.2774 H        81      M_B    0.0000
    597 H         162.0183  244.4544   -1.1629 H        81      M_B    0.0000
    598 H         160.3095  244.9672   -1.0864 H        81      M_B    0.0000
    599 C         162.3809  246.6504   -0.2119 C.3      82      M_B    0.0000
    600 C         162.3340  248.0220    0.4498 C.3      82      M_B    0.0000
    601 O         162.4605  249.0219   -0.5602 O.3      82      M_B    0.0000
    602 H         163.4068  246.2675   -0.1698 H        82      M_B    0.0000
    603 H         162.0990  246.7314   -1.2679 H        82      M_B    0.0000
    604 H         161.3984  248.1660    1.0066 H        82      M_B    0.0000
    605 H         163.1766  248.0898    1.1523 H        82      M_B    0.0000
    606 C         161.7554  250.1898   -0.1977 C.3      83      M_B    0.0000
    607 C         162.4977  251.4657   -0.5754 C.3      83      M_B    0.0000
    608 O         162.3704  252.4025    0.4933 O.3      83      M_B    0.0000
    609 H         160.7849  250.1764   -0.7064 H        83      M_B    0.0000
    610 H         161.5657  250.1694    0.8815 H        83      M_B    0.0000
    611 H         163.5587  251.2666   -0.7769 H        83      M_B    0.0000
    612 H         162.0355  251.8710   -1.4865 H        83      M_B    0.0000
    613 C         163.2740  253.4743    0.3280 C.3      84      M_B    0.0000
    614 C         162.6230  254.8327    0.5568 C.3      84      M_B    0.0000
    615 O         163.5123  255.8496    0.0976 O.3      84      M_B    0.0000
    616 H         164.0939  253.3453    1.0435 H        84      M_B    0.0000
    617 H         163.7014  253.4261   -0.6800 H        84      M_B    0.0000
    618 H         161.6612  254.9090    0.0322 H        84      M_B    0.0000
    619 H         162.4465  254.9479    1.6355 H        84      M_B    0.0000
    620 C         162.7911  256.9615   -0.3885 C.3      85      M_B    0.0000
    621 C         163.6991  258.0778   -0.8894 C.3      85      M_B    0.0000
    622 O         163.7061  259.1293    0.0749 O.3      85      M_B    0.0000
    623 H         162.1525  256.6227   -1.2122 H        85      M_B    0.0000
    624 H         162.1372  257.3358    0.4073 H        85      M_B    0.0000
    625 H         164.7220  257.7159   -1.0589 H        85      M_B    0.0000
    626 H         163.2925  258.4452   -1.8422 H        85      M_B    0.0000
    627 C         164.2123  260.3204   -0.4887 C.3      86      M_B    0.0000
    628 C         165.4522  260.8322    0.2339 C.3      86      M_B    0.0000
    629 O         165.5587  262.2388    0.0195 O.3      86      M_B    0.0000
    630 H         164.4644  260.1238   -1.5369 H        86      M_B    0.0000
    631 H         163.4252  261.0829   -0.4732 H        86      M_B    0.0000
    632 H         165.4051  260.6181    1.3100 H        86      M_B    0.0000
    633 H         166.3280  260.3209   -0.1896 H        86      M_B    0.0000
    634 C         166.3641  262.8358    1.0134 C.3      87      M_B    0.0000
    635 C         166.1580  264.3423    1.1105 C.3      87      M_B    0.0000
    636 O         167.2772  264.9966    0.5147 O.3      87      M_B    0.0000
    637 H         166.1155  262.3776    1.9773 H        87      M_B    0.0000
    638 H         167.4155  262.6120    0.7998 H        87      M_B    0.0000
    639 H         165.2308  264.6524    0.6102 H        87      M_B    0.0000
    640 H         166.0907  264.6085    2.1747 H        87      M_B    0.0000
    641 C         167.0965  266.3966    0.5166 C.3      88      M_B    0.0000
    642 C         167.7718  267.0782   -0.6669 C.3      88      M_B    0.0000
    643 O         167.8967  268.4709   -0.3827 O.3      88      M_B    0.0000
    644 H         166.0209  266.6036    0.4828 H        88      M_B    0.0000
    645 H         167.4842  266.8033    1.4575 H        88      M_B    0.0000
    646 H         168.7609  266.6450   -0.8671 H        88      M_B    0.0000
    647 H         167.1367  266.9315   -1.5518 H        88      M_B    0.0000
    648 C         168.6446  268.6747    0.7970 C.3      89      M_B    0.0000
    649 C         168.4510  270.0680    1.3825 C.3      89      M_B    0.0000
    650 O         169.4415  270.9364    0.8342 O.3      89      M_B    0.0000
    651 H         168.3298  267.9291    1.5359 H        89      M_B    0.0000
    652 H         169.7046  268.5010    0.5797 H        89      M_B    0.0000
    653 H         167.4474  270.4574    1.1652 H        89      M_B    0.0000
    654 H         168.5744  269.9991    2.4724 H        89      M_B    0.0000
    655 C         169.0354  272.2845    0.9363 C.3      90      M_B    0.0000
    656 C         169.3035  273.0773   -0.3369 C.3      90      M_B    0.0000
    657 O         169.5158  274.4445    0.0115 O.3      90      M_B    0.0000
    658 H         167.9609  272.3038    1.1504 H        90      M_B    0.0000
    659 H         169.5522  272.7476    1.7846 H        90      M_B    0.0000
    660 H         170.1772  272.6862   -0.8753 H        90      M_B    0.0000
    661 H         168.4206  272.9881   -0.9854 H        90      M_B    0.0000
    662 C         169.6084  275.2464   -1.1466 C.3      91      M_B    0.0000
    663 C         170.6034  276.3898   -0.9919 C.3      91      M_B    0.0000
    664 O         169.8789  277.6042   -0.8012 O.3      91      M_B    0.0000
    665 H         169.9225  274.6090   -1.9808 H        91      M_B    0.0000
    666 H         168.6143  275.6412   -1.3853 H        91      M_B    0.0000
    667 H         171.2809  276.2189   -0.1446 H        91      M_B    0.0000
    668 H         171.1992  276.4492   -1.9136 H        91      M_B    0.0000
    669 C         170.6057  278.4960    0.0168 C.3      92      M_B    0.0000
    670 C         170.4073  279.9532   -0.3812 C.3      92      M_B    0.0000
    671 O         171.5461  280.7020    0.0411 O.3      92      M_B    0.0000
    672 H         170.2740  278.3594    1.0523 H        92      M_B    0.0000
    673 H         171.6688  278.2338   -0.0295 H        92      M_B    0.0000
    674 H         170.2702  280.0567   -1.4660 H        92      M_B    0.0000
    675 H         169.5054  280.3245    0.1254 H        92      M_B    0.0000
    676 C         171.2620  282.0847    0.0427 C.3      93      M_B    0.0000
    677 C         172.4348  282.9265   -0.4446 C.3      93      M_B    0.0000
    678 O         172.3038  284.2444    0.0862 O.3      93      M_B    0.0000
    679 H         170.4003  282.2586   -0.6116 H        93      M_B    0.0000
    680 H         170.9763  282.3872    1.0566 H        93      M_B    0.0000
    681 H         173.3950  282.4908   -0.1374 H        93      M_B    0.0000
    682 H         172.3972  282.9588   -1.5426 H        93      M_B    0.0000
    683 C         173.1168  285.1526   -0.6259 C.3      94      M_B    0.0000
    684 C         173.4838  286.3821    0.1957 C.3      94      M_B    0.0000
    685 O         173.3712  287.5373   -0.6342 O.3      94      M_B    0.0000
    686 H         174.0349  284.6323   -0.9213 H        94      M_B    0.0000
    687 H         172.5952  285.4530   -1.5418 H        94      M_B    0.0000
    688 H         172.8330  286.4851    1.0743 H        94      M_B    0.0000
    689 H         174.5218  286.2654    0.5373 H        94      M_B    0.0000
    690 C         173.7506  288.6988    0.0726 C.3      95      M_B    0.0000
    691 C         173.4302  289.9801   -0.6870 C.3      95      M_B    0.0000
    692 O         174.2225  291.0394   -0.1521 O.3      95      M_B    0.0000
    693 H         173.2173  288.7073    1.0299 H        95      M_B    0.0000
    694 H         174.8235  288.6475    0.2899 H        95      M_B    0.0000
    695 H         173.6275  289.8683   -1.7615 H        95      M_B    0.0000
    696 H         172.3630  290.2017   -0.5454 H        95      M_B    0.0000
    697 C         174.3367  292.0959   -1.0814 C.3      96      M_B    0.0000
    698 C         175.3160  293.1724   -0.6303 C.3      96      M_B    0.0000
    699 O         174.6374  294.4273   -0.6064 O.3      96      M_B    0.0000
    700 H         174.6782  291.6783   -2.0353 H        96      M_B    0.0000
    701 H         173.3451  292.5330   -1.2455 H        96      M_B    0.0000
    702 H         175.7274  292.9482    0.3630 H        96      M_B    0.0000
    703 H         176.1418  293.2062   -1.3547 H        96      M_B    0.0000
    704 C         175.3521  295.3668    0.1676 C.3      97      M_B    0.0000
    705 C         175.5630  296.6888   -0.5598 C.3      97      M_B    0.0000
    706 O         176.3420  297.5488    0.2705 O.3      97      M_B    0.0000
    707 H         174.7888  295.5513    1.0893 H        97      M_B    0.0000
    708 H         176.3183  294.9331    0.4492 H        97      M_B    0.0000
    709 H         176.0670  296.5391   -1.5241 H        97      M_B    0.0000
    710 H         174.5765  297.1373   -0.7433 H        97      M_B    0.0000
    711 C         176.6839  298.7326   -0.4182 C.3      98      M_B    0.0000
    712 C         177.2774  299.7953    0.4981 C.3      98      M_B    0.0000
    713 O         177.1479  301.0682   -0.1334 O.3      98      M_B    0.0000
    714 H         177.4158  298.4792   -1.1935 H        98      M_B    0.0000
    715 H         175.7904  299.1227   -0.9189 H        98      M_B    0.0000
    716 H         176.7755  299.8072    1.4749 H        98      M_B    0.0000
    717 H         178.3398  299.5585    0.6503 H        98      M_B    0.0000
    718 C         177.4007  302.1096    0.7854 C.3      99      M_B    0.0000
    719 C         177.3997  303.4850    0.1300 C.3      99      M_B    0.0000
    720 O         178.5133  304.2280    0.6239 O.3      99      M_B    0.0000
    721 H         176.6244  302.0809    1.5584 H        99      M_B    0.0000
    722 H         178.3641  301.9255    1.2743 H        99      M_B    0.0000
    723 H         177.4550  303.4070   -0.9641 H        99      M_B    0.0000
    724 H         176.4620  303.9902    0.4007 H        99      M_B    0.0000
    725 C         178.7780  305.3405   -0.2038 C.3     100      M_B    0.0000
    726 C         179.4091  306.5010    0.5553 C.3     100      M_B    0.0000
    727 O         179.1642  307.7071   -0.1667 O.3     100      M_B    0.0000
    728 H         179.4594  305.0210   -1.0003 H       100      M_B    0.0000
    729 H         177.8426  305.6625   -0.6754 H       100      M_B    0.0000
    730 H         179.0026  306.5822    1.5723 H       100      M_B    0.0000
    731 H         180.4905  306.3163    0.6213 H       100      M_B    0.0000
    732 C         180.0001  308.7455    0.2976 C.3     101      M_B    0.0000
    733 C         179.3938  310.1273    0.0863 C.3     101      M_B    0.0000
    734 O         180.4491  311.0857    0.0257 O.3     101      M_B    0.0000
    735 H         180.1758  308.5917    1.3683 H       101      M_B    0.0000
    736 H         180.9680  308.6766   -0.2117 H       101      M_B    0.0000
    737 H         178.7972  310.1658   -0.8350 H       101      M_B    0.0000
    738 H         178.7378  310.3452    0.9408 H       101      M_B    0.0000
    739 C         180.0348  312.2412   -0.6711 C.3     102      M_B    0.0000
    740 C         181.0673  313.3605   -0.6199 C.3     102      M_B    0.0000
    741 O         180.4238  314.5571   -0.1840 O.3     102      M_B    0.0000
    742 H         179.8569  311.9659   -1.7168 H       102      M_B    0.0000
    743 H         179.0831  312.5867   -0.2515 H       102      M_B    0.0000
    744 H         181.8952  313.1105    0.0570 H       102      M_B    0.0000
    745 H         181.4696  313.4988   -1.6333 H       102      M_B    0.0000
    746 C         181.0708  315.6938   -0.7147 C.3     103      M_B    0.0000
    747 C         181.8730  316.4562    0.3325 C.3     103      M_B    0.0000
    748 O         181.9561  317.8250   -0.0619 O.3     103      M_B    0.0000
    749 H         181.7459  315.3632   -1.5120 H       103      M_B    0.0000
    750 H         180.3193  316.3514   -1.1664 H       103      M_B    0.0000
    751 H         181.4106  316.3783    1.3256 H       103      M_B    0.0000
    752 H         182.8793  316.0167    0.3764 H       103      M_B    0.0000
    753 C         182.2103  318.6516    1.0537 C.3     104      M_B    0.0000
    754 C         181.9227  320.1214    0.7741 C.3     104      M_B    0.0000
    755 O         183.1590  320.8335    0.7523 O.3     104      M_B    0.0000
    756 H         181.5770  318.3142    1.8820 H       104      M_B    0.0000
    757 H         183.2548  318.5233    1.3599 H       104      M_B    0.0000
    758 H         181.3967  320.2516   -0.1812 H       104      M_B    0.0000
    759 H         181.2843  320.5030    1.5832 H       104      M_B    0.0000
    760 C         182.9462  322.1941    0.4423 C.3     105      M_B    0.0000
    761 C         184.2222  322.9047    0.0083 C.3     105      M_B    0.0000
    762 O         183.9800  324.3107   -0.0079 O.3     105      M_B    0.0000
    763 H         182.2116  322.2502   -0.3688 H       105      M_B    0.0000
    764 H         182.5150  322.6942    1.3170 H       105      M_B    0.0000
    765 H         185.0576  322.6745    0.6829 H       105      M_B    0.0000
    766 H         184.4784  322.5565   -1.0022 H       105      M_B    0.0000
    767 C         182.7176  324.6065    0.5501 C.3     106      M_B    0.0000
    768 C         182.1528  325.9327    0.0566 C.3     106      M_B    0.0000
    769 O         182.5780  326.9686    0.9409 O.3     106      M_B    0.0000
    770 H         182.0260  323.8004    0.2805 H       106      M_B    0.0000
    771 H         182.8061  324.6175    1.6424 H       106      M_B    0.0000
    772 H         182.4839  326.1525   -0.9672 H       106      M_B    0.0000
    773 H         181.0562  325.8594    0.0646 H       106      M_B    0.0000
    774 C         183.4583  327.8556    0.2843 C.3     107      M_B    0.0000
    775 C         183.3001  329.2962    0.7544 C.3     107      M_B    0.0000
    776 O         183.4312  330.1621   -0.3720 O.3     107      M_B    0.0000
    777 H         184.4852  327.5262    0.4788 H       107      M_B    0.0000
    778 H         183.2870  327.7906   -0.7962 H       107      M_B    0.0000
    779 H         182.3276  329.4543    1.2395 H       107      M_B    0.0000
    780 H         184.0959  329.5055    1.4830 H       107      M_B    0.0000
    781 C         182.6501  331.3254   -0.2011 C.3     108      M_B    0.0000
    782 C         183.4087  332.5995   -0.5512 C.3     108      M_B    0.0000
    783 O         182.6867  333.7178   -0.0371 O.3     108      M_B    0.0000
    784 H         181.7686  331.2447   -0.8472 H       108      M_B    0.0000
    785 H         182.2994  331.3683    0.8363 H       108      M_B    0.0000
    786 H         184.4259  332.5861   -0.1374 H       108      M_B    0.0000
    787 H         183.4740  332.6666   -1.6463 H       108      M_B    0.0000
    788 C         183.5676  334.7664    0.3049 C.3     109      M_B    0.0000
    789 C         182.8461  335.9711    0.8960 C.3     109      M_B    0.0000
    790 O         182.4912  336.8575   -0.1642 O.3     109      M_B    0.0000
    791 H         184.2869  334.3847    1.0382 H       109      M_B    0.0000
    792 H         184.1290  335.0639   -0.5881 H       109      M_B    0.0000
    793 H         181.9473  335.6674    1.4493 H       109      M_B    0.0000
    794 H         183.5347  336.4732    1.5901 H       109      M_B    0.0000
    795 C         181.3853  337.6552    0.2008 C.3     110      M_B    0.0000
    796 C         180.1263  337.3097   -0.5847 C.3     110      M_B    0.0000
    797 O         179.1795  338.3641   -0.4187 O.3     110      M_B    0.0000
    798 H         181.1926  337.5062    1.2693 H       110      M_B    0.0000
    799 H         181.6442  338.7099    0.0533 H       110      M_B    0.0000
    800 H         180.3467  337.1664   -1.6510 H       110      M_B    0.0000
    801 H         179.7191  336.3726   -0.1796 H       110      M_B    0.0000
    802 C         179.5787  339.2350    0.6181 C.3     111      M_B    0.0000
    803 C         178.4046  339.9682    1.2548 C.3     111      M_B    0.0000
    804 O         178.1845  341.1849    0.5428 O.3     111      M_B    0.0000
    805 H         180.0898  338.6430    1.3857 H       111      M_B    0.0000
    806 H         180.3010  339.9556    0.2178 H       111      M_B    0.0000
    807 H         177.4942  339.3540    1.2407 H       111      M_B    0.0000
    808 H         178.6664  340.1870    2.2995 H       111      M_B    0.0000
    809 C         179.2213  342.1080    0.7991 C.3     112      M_B    0.0000
    810 C         178.7006  343.4646    1.2575 C.3     112      M_B    0.0000
    811 O         178.3857  344.2466    0.1064 O.3     112      M_B    0.0000
    812 H         179.8673  341.6902    1.5794 H       112      M_B    0.0000
    813 H         179.8263  342.2231   -0.1075 H       112      M_B    0.0000
    814 H         177.8123  343.3578    1.8944 H       112      M_B    0.0000
    815 H         179.4943  343.9549    1.8384 H       112      M_B    0.0000
    816 C         177.7924  343.4465   -0.8938 C.3     113      M_B    0.0000
    817 C         176.3333  343.8057   -1.1454 C.3     113      M_B    0.0000
    818 O         175.5088  342.7705   -0.6121 O.3     113      M_B    0.0000
    819 H         178.3593  343.5812   -1.8220 H       113      M_B    0.0000
    820 H         177.8767  342.3934   -0.6024 H       113      M_B    0.0000
    821 H         176.0731  344.7685   -0.6854 H       113      M_B    0.0000
    822 H         176.1841  343.8819   -2.2316 H       113      M_B    0.0000
    823 C         175.6823  342.6637    0.7848 C.3     114      M_B    0.0000
    824 C         174.4023  342.2624    1.5072 C.3     114      M_B    0.0000
    825 O         173.6489  343.4403    1.7915 O.3     114      M_B    0.0000
    826 H         176.4538  341.9096    0.9779 H       114      M_B    0.0000
    827 H         176.0490  343.6214    1.1712 H       114      M_B    0.0000
    828 H         173.8024  341.5687    0.9030 H       114      M_B    0.0000
    829 H         174.6833  341.7616    2.4444 H       114      M_B    0.0000
    830 O         171.0527  343.0992   -2.1247 O.2     115      M_C    0.0000
    831 C         171.2653  343.5861   -1.0178 C.2     115      M_C    0.0000
    832 C         172.5977  343.3949   -0.3069 C.3     115      M_C    0.0000
    833 O         172.4195  343.4262    1.0979 O.3     115      M_C    0.0000
    834 N         170.3640  344.3824   -0.3390 N.3     115      M_C    0.0000
    835 C         169.0469  344.7788   -0.8432 C.3     115      M_C    0.0000
    836 C         168.2303  343.5607   -1.3443 C.3     115      M_C    0.0000
    837 C         166.8738  344.0161   -1.9090 C.3     115      M_C    0.0000
    838 C         166.0889  344.7476   -0.8048 C.3     115      M_C    0.0000
    839 C         166.8690  345.9919   -0.3305 C.3     115      M_C    0.0000
    840 C         168.2278  345.5262    0.2361 C.3     115      M_C    0.0000
    841 C         167.0571  346.9333   -1.5427 C.3     115      M_C    0.0000
    842 C         167.8973  346.2083   -2.6203 C.3     115      M_C    0.0000
    843 C         167.1126  344.9686   -3.0921 C.3     115      M_C    0.0000
    844 C         169.2495  345.7351   -2.0481 C.3     115      M_C    0.0000
    845 H         173.3225  344.1311   -0.6794 H       115      M_C    0.0000
    846 H         172.9781  342.4004   -0.5668 H       115      M_C    0.0000
    847 H         170.5316  344.4911    0.6601 H       115      M_C    0.0000
    848 H         168.7943  343.0191   -2.1150 H       115      M_C    0.0000
    849 H         168.0520  342.8434   -0.5354 H       115      M_C    0.0000
    850 H         166.3053  343.1430   -2.2486 H       115      M_C    0.0000
    851 H         165.1029  345.0452   -1.1824 H       115      M_C    0.0000
    852 H         165.9128  344.0711    0.0407 H       115      M_C    0.0000
    853 H         166.2994  346.4941    0.4614 H       115      M_C    0.0000
    854 H         168.0461  344.8771    1.1017 H       115      M_C    0.0000
    855 H         168.7989  346.3809    0.6200 H       115      M_C    0.0000
    856 H         166.0672  347.1544   -1.9663 H       115      M_C    0.0000
    857 H         168.0767  346.8687   -3.4779 H       115      M_C    0.0000
    858 H         167.6685  344.4513   -3.8838 H       115      M_C    0.0000
    859 H         166.1529  345.2741   -3.5269 H       115      M_C    0.0000
    860 H         169.8580  346.5981   -1.7486 H       115      M_C    0.0000
    861 H         169.8230  345.2272   -2.8357 H       115      M_C    0.0000
    862 H         167.4862  347.8950   -1.2616 H       115      M_C    0.0000
    863 H          48.9122  175.6217   -0.4556 H         0      M_A    0.0000
@<TRIPOS>BOND
     1     1     2      1
     2     1     6      1
     3     1    10      1
     4     1    15      1
     5     2     3      1
     6     2    16      1
     7     2    17      1
     8     3     4      1
     9     3     9      1
    10     3    18      1
    11     4     5      1
    12     4    19      1
    13     4    20      1
    14     5     6      1
    15     5     7      1
    16     5    21      1
    17     6    22      1
    18     6    23      1
    19     7     8      1
    20     7    24      1
    21     7   863      H
    22     8     9      1
    23     8    10      1
    24     8    25      1
    25     9    26      1
    26     9    27      1
    27    10    11      1
    28    10    28      1
    29    11    12      1
    30    11    29      1
    31    12    13      2
    32    12    14      1
    33    14    30      1
    34    14    31      1
    35    14    32      1
    36    32    33      1
    37    32    35      1
    38    32    36      1
    39    33    34      1
    40    33    37      1
    41    33    38      1
    42    34    39      1
    43    39    40      1
    44    39    42      1
    45    39    43      1
    46    40    41      1
    47    40    44      1
    48    40    45      1
    49    41    46      1
    50    46    47      1
    51    46    49      1
    52    46    50      1
    53    47    48      1
    54    47    51      1
    55    47    52      1
    56    48    53      1
    57    53    54      1
    58    53    56      1
    59    53    57      1
    60    54    55      1
    61    54    58      1
    62    54    59      1
    63    55    60      1
    64    60    61      1
    65    60    63      1
    66    60    64      1
    67    61    62      1
    68    61    65      1
    69    61    66      1
    70    62    67      1
    71    67    68      1
    72    67    70      1
    73    67    71      1
    74    68    69      1
    75    68    72      1
    76    68    73      1
    77    69    74      1
    78    74    75      1
    79    74    77      1
    80    74    78      1
    81    75    76      1
    82    75    79      1
    83    75    80      1
    84    76    81      1
    85    81    82      1
    86    81    84      1
    87    81    85      1
    88    82    83      1
    89    82    86      1
    90    82    87      1
    91    83    88      1
    92    88    89      1
    93    88    91      1
    94    88    92      1
    95    89    90      1
    96    89    93      1
    97    89    94      1
    98    90    95      1
    99    95    96      1
   100    95    98      1
   101    95    99      1
   102    96    97      1
   103    96   100      1
   104    96   101      1
   105    97   102      1
   106   102   103      1
   107   102   105      1
   108   102   106      1
   109   103   104      1
   110   103   107      1
   111   103   108      1
   112   104   109      1
   113   109   110      1
   114   109   112      1
   115   109   113      1
   116   110   111      1
   117   110   114      1
   118   110   115      1
   119   111   116      1
   120   116   117      1
   121   116   119      1
   122   116   120      1
   123   117   118      1
   124   117   121      1
   125   117   122      1
   126   118   123      1
   127   123   124      1
   128   123   126      1
   129   123   127      1
   130   124   125      1
   131   124   128      1
   132   124   129      1
   133   125   130      1
   134   130   131      1
   135   130   133      1
   136   130   134      1
   137   131   132      1
   138   131   135      1
   139   131   136      1
   140   132   137      1
   141   137   138      1
   142   137   140      1
   143   137   141      1
   144   138   139      1
   145   138   142      1
   146   138   143      1
   147   139   144      1
   148   144   145      1
   149   144   147      1
   150   144   148      1
   151   145   146      1
   152   145   149      1
   153   145   150      1
   154   146   151      1
   155   151   152      1
   156   151   154      1
   157   151   155      1
   158   152   153      1
   159   152   156      1
   160   152   157      1
   161   153   158      1
   162   158   159      1
   163   158   161      1
   164   158   162      1
   165   159   160      1
   166   159   163      1
   167   159   164      1
   168   160   165      1
   169   165   166      1
   170   165   168      1
   171   165   169      1
   172   166   167      1
   173   166   170      1
   174   166   171      1
   175   167   172      1
   176   172   173      1
   177   172   175      1
   178   172   176      1
   179   173   174      1
   180   173   177      1
   181   173   178      1
   182   174   179      1
   183   179   180      1
   184   179   182      1
   185   179   183      1
   186   180   181      1
   187   180   184      1
   188   180   185      1
   189   181   186      1
   190   186   187      1
   191   186   189      1
   192   186   190      1
   193   187   188      1
   194   187   191      1
   195   187   192      1
   196   188   193      1
   197   193   194      1
   198   193   196      1
   199   193   197      1
   200   194   195      1
   201   194   198      1
   202   194   199      1
   203   195   200      1
   204   200   201      1
   205   200   203      1
   206   200   204      1
   207   201   202      1
   208   201   205      1
   209   201   206      1
   210   202   207      1
   211   207   208      1
   212   207   210      1
   213   207   211      1
   214   208   209      1
   215   208   212      1
   216   208   213      1
   217   209   214      1
   218   214   215      1
   219   214   217      1
   220   214   218      1
   221   215   216      1
   222   215   219      1
   223   215   220      1
   224   216   221      1
   225   221   222      1
   226   221   224      1
   227   221   225      1
   228   222   223      1
   229   222   226      1
   230   222   227      1
   231   223   228      1
   232   228   229      1
   233   228   231      1
   234   228   232      1
   235   229   230      1
   236   229   233      1
   237   229   234      1
   238   230   235      1
   239   235   236      1
   240   235   238      1
   241   235   239      1
   242   236   237      1
   243   236   240      1
   244   236   241      1
   245   237   242      1
   246   242   243      1
   247   242   245      1
   248   242   246      1
   249   243   244      1
   250   243   247      1
   251   243   248      1
   252   244   249      1
   253   249   250      1
   254   249   252      1
   255   249   253      1
   256   250   251      1
   257   250   254      1
   258   250   255      1
   259   251   256      1
   260   256   257      1
   261   256   259      1
   262   256   260      1
   263   257   258      1
   264   257   261      1
   265   257   262      1
   266   258   263      1
   267   263   264      1
   268   263   266      1
   269   263   267      1
   270   264   265      1
   271   264   268      1
   272   264   269      1
   273   265   270      1
   274   270   271      1
   275   270   273      1
   276   270   274      1
   277   271   272      1
   278   271   275      1
   279   271   276      1
   280   272   277      1
   281   277   278      1
   282   277   280      1
   283   277   281      1
   284   278   279      1
   285   278   282      1
   286   278   283      1
   287   279   284      1
   288   284   285      1
   289   284   287      1
   290   284   288      1
   291   285   286      1
   292   285   289      1
   293   285   290      1
   294   286   291      1
   295   291   292      1
   296   291   294      1
   297   291   295      1
   298   292   293      1
   299   292   296      1
   300   292   297      1
   301   293   298      1
   302   298   299      1
   303   298   301      1
   304   298   302      1
   305   299   300      1
   306   299   303      1
   307   299   304      1
   308   300   305      1
   309   305   306      1
   310   305   308      1
   311   305   309      1
   312   306   307      1
   313   306   310      1
   314   306   311      1
   315   307   312      1
   316   312   313      1
   317   312   315      1
   318   312   316      1
   319   313   314      1
   320   313   317      1
   321   313   318      1
   322   314   319      1
   323   319   320      1
   324   319   322      1
   325   319   323      1
   326   320   321      1
   327   320   324      1
   328   320   325      1
   329   321   326      1
   330   326   327      1
   331   326   329      1
   332   326   330      1
   333   327   328      1
   334   327   331      1
   335   327   332      1
   336   328   333      1
   337   333   334      1
   338   333   336      1
   339   333   337      1
   340   334   335      1
   341   334   338      1
   342   334   339      1
   343   335   340      1
   344   340   341      1
   345   340   343      1
   346   340   344      1
   347   341   342      1
   348   341   345      1
   349   341   346      1
   350   342   347      1
   351   347   348      1
   352   347   350      1
   353   347   351      1
   354   348   349      1
   355   348   352      1
   356   348   353      1
   357   349   354      1
   358   354   355      1
   359   354   357      1
   360   354   358      1
   361   355   356      1
   362   355   359      1
   363   355   360      1
   364   356   361      1
   365   361   362      1
   366   361   364      1
   367   361   365      1
   368   362   363      1
   369   362   366      1
   370   362   367      1
   371   363   368      1
   372   368   369      1
   373   368   371      1
   374   368   372      1
   375   369   370      1
   376   369   373      1
   377   369   374      1
   378   370   375      1
   379   375   376      1
   380   375   378      1
   381   375   379      1
   382   376   377      1
   383   376   380      1
   384   376   381      1
   385   377   382      1
   386   382   383      1
   387   382   385      1
   388   382   386      1
   389   383   384      1
   390   383   387      1
   391   383   388      1
   392   384   389      1
   393   389   390      1
   394   389   392      1
   395   389   393      1
   396   390   391      1
   397   390   394      1
   398   390   395      1
   399   391   396      1
   400   396   397      1
   401   396   399      1
   402   396   400      1
   403   397   398      1
   404   397   401      1
   405   397   402      1
   406   398   403      1
   407   403   404      1
   408   403   406      1
   409   403   407      1
   410   404   405      1
   411   404   408      1
   412   404   409      1
   413   405   410      1
   414   410   411      1
   415   410   413      1
   416   410   414      1
   417   411   412      1
   418   411   415      1
   419   411   416      1
   420   412   417      1
   421   417   418      1
   422   417   420      1
   423   417   421      1
   424   418   419      1
   425   418   422      1
   426   418   423      1
   427   419   424      1
   428   424   425      1
   429   424   427      1
   430   424   428      1
   431   425   426      1
   432   425   429      1
   433   425   430      1
   434   426   431      1
   435   431   432      1
   436   431   434      1
   437   431   435      1
   438   432   433      1
   439   432   436      1
   440   432   437      1
   441   433   438      1
   442   438   439      1
   443   438   441      1
   444   438   442      1
   445   439   440      1
   446   439   443      1
   447   439   444      1
   448   440   445      1
   449   445   446      1
   450   445   448      1
   451   445   449      1
   452   446   447      1
   453   446   450      1
   454   446   451      1
   455   447   452      1
   456   452   453      1
   457   452   455      1
   458   452   456      1
   459   453   454      1
   460   453   457      1
   461   453   458      1
   462   454   459      1
   463   459   460      1
   464   459   462      1
   465   459   463      1
   466   460   461      1
   467   460   464      1
   468   460   465      1
   469   461   466      1
   470   466   467      1
   471   466   469      1
   472   466   470      1
   473   467   468      1
   474   467   471      1
   475   467   472      1
   476   468   473      1
   477   473   474      1
   478   473   476      1
   479   473   477      1
   480   474   475      1
   481   474   478      1
   482   474   479      1
   483   475   480      1
   484   480   481      1
   485   480   483      1
   486   480   484      1
   487   481   482      1
   488   481   485      1
   489   481   486      1
   490   482   487      1
   491   487   488      1
   492   487   490      1
   493   487   491      1
   494   488   489      1
   495   488   492      1
   496   488   493      1
   497   489   494      1
   498   494   495      1
   499   494   497      1
   500   494   498      1
   501   495   496      1
   502   495   499      1
   503   495   500      1
   504   496   501      1
   505   501   502      1
   506   501   504      1
   507   501   505      1
   508   502   503      1
   509   502   506      1
   510   502   507      1
   511   503   508      1
   512   508   509      1
   513   508   511      1
   514   508   512      1
   515   509   510      1
   516   509   513      1
   517   509   514      1
   518   510   515      1
   519   515   516      1
   520   515   518      1
   521   515   519      1
   522   516   517      1
   523   516   520      1
   524   516   521      1
   525   517   522      1
   526   522   523      1
   527   522   525      1
   528   522   526      1
   529   523   524      1
   530   523   527      1
   531   523   528      1
   532   524   529      1
   533   529   530      1
   534   529   532      1
   535   529   533      1
   536   530   531      1
   537   530   534      1
   538   530   535      1
   539   531   536      1
   540   536   537      1
   541   536   539      1
   542   536   540      1
   543   537   538      1
   544   537   541      1
   545   537   542      1
   546   538   543      1
   547   543   544      1
   548   543   546      1
   549   543   547      1
   550   544   545      1
   551   544   548      1
   552   544   549      1
   553   545   550      1
   554   550   551      1
   555   550   553      1
   556   550   554      1
   557   551   552      1
   558   551   555      1
   559   551   556      1
   560   552   557      1
   561   557   558      1
   562   557   560      1
   563   557   561      1
   564   558   559      1
   565   558   562      1
   566   558   563      1
   567   559   564      1
   568   564   565      1
   569   564   567      1
   570   564   568      1
   571   565   566      1
   572   565   569      1
   573   565   570      1
   574   566   571      1
   575   571   572      1
   576   571   574      1
   577   571   575      1
   578   572   573      1
   579   572   576      1
   580   572   577      1
   581   573   578      1
   582   578   579      1
   583   578   581      1
   584   578   582      1
   585   579   580      1
   586   579   583      1
   587   579   584      1
   588   580   585      1
   589   585   586      1
   590   585   588      1
   591   585   589      1
   592   586   587      1
   593   586   590      1
   594   586   591      1
   595   587   592      1
   596   592   593      1
   597   592   595      1
   598   592   596      1
   599   593   594      1
   600   593   597      1
   601   593   598      1
   602   594   599      1
   603   599   600      1
   604   599   602      1
   605   599   603      1
   606   600   601      1
   607   600   604      1
   608   600   605      1
   609   601   606      1
   610   606   607      1
   611   606   609      1
   612   606   610      1
   613   607   608      1
   614   607   611      1
   615   607   612      1
   616   608   613      1
   617   613   614      1
   618   613   616      1
   619   613   617      1
   620   614   615      1
   621   614   618      1
   622   614   619      1
   623   615   620      1
   624   620   621      1
   625   620   623      1
   626   620   624      1
   627   621   622      1
   628   621   625      1
   629   621   626      1
   630   622   627      1
   631   627   628      1
   632   627   630      1
   633   627   631      1
   634   628   629      1
   635   628   632      1
   636   628   633      1
   637   629   634      1
   638   634   635      1
   639   634   637      1
   640   634   638      1
   641   635   636      1
   642   635   639      1
   643   635   640      1
   644   636   641      1
   645   641   642      1
   646   641   644      1
   647   641   645      1
   648   642   643      1
   649   642   646      1
   650   642   647      1
   651   643   648      1
   652   648   649      1
   653   648   651      1
   654   648   652      1
   655   649   650      1
   656   649   653      1
   657   649   654      1
   658   650   655      1
   659   655   656      1
   660   655   658      1
   661   655   659      1
   662   656   657      1
   663   656   660      1
   664   656   661      1
   665   657   662      1
   666   662   663      1
   667   662   665      1
   668   662   666      1
   669   663   664      1
   670   663   667      1
   671   663   668      1
   672   664   669      1
   673   669   670      1
   674   669   672      1
   675   669   673      1
   676   670   671      1
   677   670   674      1
   678   670   675      1
   679   671   676      1
   680   676   677      1
   681   676   679      1
   682   676   680      1
   683   677   678      1
   684   677   681      1
   685   677   682      1
   686   678   683      1
   687   683   684      1
   688   683   686      1
   689   683   687      1
   690   684   685      1
   691   684   688      1
   692   684   689      1
   693   685   690      1
   694   690   691      1
   695   690   693      1
   696   690   694      1
   697   691   692      1
   698   691   695      1
   699   691   696      1
   700   692   697      1
   701   697   698      1
   702   697   700      1
   703   697   701      1
   704   698   699      1
   705   698   702      1
   706   698   703      1
   707   699   704      1
   708   704   705      1
   709   704   707      1
   710   704   708      1
   711   705   706      1
   712   705   709      1
   713   705   710      1
   714   706   711      1
   715   711   712      1
   716   711   714      1
   717   711   715      1
   718   712   713      1
   719   712   716      1
   720   712   717      1
   721   713   718      1
   722   718   719      1
   723   718   721      1
   724   718   722      1
   725   719   720      1
   726   719   723      1
   727   719   724      1
   728   720   725      1
   729   725   726      1
   730   725   728      1
   731   725   729      1
   732   726   727      1
   733   726   730      1
   734   726   731      1
   735   727   732      1
   736   732   733      1
   737   732   735      1
   738   732   736      1
   739   733   734      1
   740   733   737      1
   741   733   738      1
   742   734   739      1
   743   739   740      1
   744   739   742      1
   745   739   743      1
   746   740   741      1
   747   740   744      1
   748   740   745      1
   749   741   746      1
   750   746   747      1
   751   746   749      1
   752   746   750      1
   753   747   748      1
   754   747   751      1
   755   747   752      1
   756   748   753      1
   757   753   754      1
   758   753   756      1
   759   753   757      1
   760   754   755      1
   761   754   758      1
   762   754   759      1
   763   755   760      1
   764   760   761      1
   765   760   763      1
   766   760   764      1
   767   761   762      1
   768   761   765      1
   769   761   766      1
   770   762   767      1
   771   767   768      1
   772   767   770      1
   773   767   771      1
   774   768   769      1
   775   768   772      1
   776   768   773      1
   777   769   774      1
   778   774   775      1
   779   774   777      1
   780   774   778      1
   781   775   776      1
   782   775   779      1
   783   775   780      1
   784   776   781      1
   785   781   782      1
   786   781   784      1
   787   781   785      1
   788   782   783      1
   789   782   786      1
   790   782   787      1
   791   783   788      1
   792   788   789      1
   793   788   791      1
   794   788   792      1
   795   789   790      1
   796   789   793      1
   797   789   794      1
   798   790   795      1
   799   795   796      1
   800   795   798      1
   801   795   799      1
   802   796   797      1
   803   796   800      1
   804   796   801      1
   805   797   802      1
   806   802   803      1
   807   802   805      1
   808   802   806      1
   809   803   804      1
   810   803   807      1
   811   803   808      1
   812   804   809      1
   813   809   810      1
   814   809   812      1
   815   809   813      1
   816   810   811      1
   817   810   814      1
   818   810   815      1
   819   811   816      1
   820   816   817      1
   821   816   819      1
   822   816   820      1
   823   817   818      1
   824   817   821      1
   825   817   822      1
   826   818   823      1
   827   823   824      1
   828   823   826      1
   829   823   827      1
   830   824   825      1
   831   824   828      1
   832   824   829      1
   833   825   833      1
   834   830   831      2
   835   831   832      1
   836   831   834      1
   837   832   833      1
   838   832   845      1
   839   832   846      1
   840   834   835      1
   841   834   847      1
   842   835   836      1
   843   835   840      1
   844   835   844      1
   845   836   837      1
   846   836   848      1
   847   836   849      1
   848   837   838      1
   849   837   843      1
   850   837   850      1
   851   838   839      1
   852   838   851      1
   853   838   852      1
   854   839   840      1
   855   839   841      1
   856   839   853      1
   857   840   854      1
   858   840   855      1
   859   841   842      1
   860   841   856      1
   861   841   862      H
   862   842   843      1
   863   842   844      1
   864   842   857      1
   865   843   858      1
   866   843   859      1
   867   844   860      1
   868   844   861      1
