###
### Created by PolyChef-cpp17 on Thu Mar 27 21:35:31 2025
###

@<TRIPOS>MOLECULE
NO_INFO
555 560 1 0 0
SMALL
USER_CHARGES


@<TRIPOS>ATOM
      1 C         148.5719  111.0369   -1.2301 C.3       0      M_A    0.0000
      2 C         148.6889  109.9908   -2.3540 C.3       0      M_A    0.0000
      3 C         147.3388  109.2816   -2.5536 C.3       0      M_A    0.0000
      4 C         146.9391  108.5832   -1.2442 C.3       0      M_A    0.0000
      5 C         146.8043  109.6190   -0.1079 C.3       0      M_A    0.0000
      6 C         148.1673  110.3171    0.0726 C.3       0      M_A    0.0000
      7 C         145.7520  110.6999   -0.4556 C.3       0      M_A    0.0000
      8 C         146.1268  111.3733   -1.7963 C.3       0      M_A    0.0000
      9 C         146.2665  110.3208   -2.9212 C.3       0      M_A    0.0000
     10 C         147.5009  112.0796   -1.6379 C.3       0      M_A    0.0000
     11 N         147.4662  113.1936   -0.7000 N.3       0      M_A    0.0000
     12 C         148.6004  113.6591   -0.0510 C.2       0      M_A    0.0000
     13 O         148.8764  113.3395    1.1046 O.2       0      M_A    0.0000
     14 C         149.5137  114.5809   -0.8794 C.3       0      M_A    0.0000
     15 H         149.5417  111.5284   -1.0870 H         0      M_A    0.0000
     16 H         149.4648  109.2567   -2.1039 H         0      M_A    0.0000
     17 H         149.0001  110.4753   -3.2876 H         0      M_A    0.0000
     18 H         147.4271  108.5409   -3.3562 H         0      M_A    0.0000
     19 H         145.9995  108.0358   -1.3822 H         0      M_A    0.0000
     20 H         147.6962  107.8355   -0.9758 H         0      M_A    0.0000
     21 H         146.5364  109.1039    0.8230 H         0      M_A    0.0000
     22 H         148.9322  109.5780    0.3421 H         0      M_A    0.0000
     23 H         148.1171  111.0297    0.9044 H         0      M_A    0.0000
     24 H         145.7644  111.4588    0.3386 H         0      M_A    0.0000
     25 H         145.3551  112.0970   -2.0841 H         0      M_A    0.0000
     26 H         146.5382  110.8179   -3.8610 H         0      M_A    0.0000
     27 H         145.3077  109.8211   -3.1029 H         0      M_A    0.0000
     28 H         147.7848  112.5149   -2.6060 H         0      M_A    0.0000
     29 H         146.5918  113.4264   -0.2236 H         0      M_A    0.0000
     30 H         149.0354  115.5640   -0.9332 H         0      M_A    0.0000
     31 H         149.5813  114.1642   -1.8896 H         0      M_A    0.0000
     32 C         150.9641  114.7291   -0.2816 C.3       1      M_B    0.0000
     33 C         151.9676  113.7857   -0.9328 C.3       1      M_B    0.0000
     34 O         153.2631  114.0568   -0.3998 O.3       1      M_B    0.0000
     35 H         151.2938  115.7631   -0.4339 H         1      M_B    0.0000
     36 H         150.9229  114.5487    0.7986 H         1      M_B    0.0000
     37 H         151.7010  112.7348   -0.7575 H         1      M_B    0.0000
     38 H         151.9602  113.9756   -2.0153 H         1      M_B    0.0000
     39 C         153.6528  115.3832   -0.6849 C.3       2      M_B    0.0000
     40 C         155.1504  115.5158   -0.9319 C.3       2      M_B    0.0000
     41 O         155.7298  116.2439    0.1498 O.3       2      M_B    0.0000
     42 H         153.1120  115.7152   -1.5783 H         2      M_B    0.0000
     43 H         153.3492  116.0290    0.1469 H         2      M_B    0.0000
     44 H         155.6297  114.5318   -1.0225 H         2      M_B    0.0000
     45 H         155.2926  116.0655   -1.8729 H         2      M_B    0.0000
     46 C         157.0287  116.6846   -0.1839 C.3       3      M_B    0.0000
     47 C         158.0920  115.6220    0.0648 C.3       3      M_B    0.0000
     48 O         159.3717  116.2525    0.0903 O.3       3      M_B    0.0000
     49 H         157.0364  116.9571   -1.2453 H         3      M_B    0.0000
     50 H         157.2563  117.5880    0.3932 H         3      M_B    0.0000
     51 H         157.9147  115.0921    1.0102 H         3      M_B    0.0000
     52 H         158.0475  114.8968   -0.7598 H         3      M_B    0.0000
     53 C         159.3673  117.4235   -0.6979 C.3       4      M_B    0.0000
     54 C         160.7424  117.7569   -1.2632 C.3       4      M_B    0.0000
     55 O         161.4210  118.6099   -0.3426 O.3       4      M_B    0.0000
     56 H         158.6656  117.2765   -1.5267 H         4      M_B    0.0000
     57 H         158.9963  118.2579   -0.0919 H         4      M_B    0.0000
     58 H         161.3333  116.8483   -1.4401 H         4      M_B    0.0000
     59 H         160.5995  118.2768   -2.2209 H         4      M_B    0.0000
     60 C         162.6117  118.0048    0.1144 C.3       5      M_B    0.0000
     61 C         163.7748  118.9853    0.1985 C.3       5      M_B    0.0000
     62 O         164.9846  118.2859   -0.0896 O.3       5      M_B    0.0000
     63 H         162.4236  117.5862    1.1096 H         5      M_B    0.0000
     64 H         162.8664  117.1739   -0.5533 H         5      M_B    0.0000
     65 H         163.6462  119.8198   -0.5038 H         5      M_B    0.0000
     66 H         163.8080  119.3868    1.2211 H         5      M_B    0.0000
     67 C         166.0486  118.7858    0.6920 C.3       6      M_B    0.0000
     68 C         166.8603  119.8519   -0.0332 C.3       6      M_B    0.0000
     69 O         168.2228  119.7479    0.3777 O.3       6      M_B    0.0000
     70 H         165.6285  119.2169    1.6077 H         6      M_B    0.0000
     71 H         166.6969  117.9518    0.9838 H         6      M_B    0.0000
     72 H         166.7863  119.7389   -1.1231 H         6      M_B    0.0000
     73 H         166.4579  120.8354    0.2476 H         6      M_B    0.0000
     74 C         168.9454  120.9026    0.0076 C.3       7      M_B    0.0000
     75 C         170.4349  120.6333   -0.1668 C.3       7      M_B    0.0000
     76 O         171.1478  121.8512    0.0436 O.3       7      M_B    0.0000
     77 H         168.5359  121.2752   -0.9382 H         7      M_B    0.0000
     78 H         168.7887  121.6778    0.7663 H         7      M_B    0.0000
     79 H         170.7874  119.8651    0.5344 H         7      M_B    0.0000
     80 H         170.5980  120.2756   -1.1931 H         7      M_B    0.0000
     81 C         172.4222  121.5952    0.5940 C.3       8      M_B    0.0000
     82 C         173.1916  122.8708    0.9136 C.3       8      M_B    0.0000
     83 O         174.2633  123.0046   -0.0188 O.3       8      M_B    0.0000
     84 H         172.2881  121.0177    1.5156 H         8      M_B    0.0000
     85 H         172.9936  120.9758   -0.1067 H         8      M_B    0.0000
     86 H         172.5399  123.7536    0.8669 H         8      M_B    0.0000
     87 H         173.5909  122.7807    1.9336 H         8      M_B    0.0000
     88 C         174.9107  124.2489    0.1397 C.3       9      M_B    0.0000
     89 C         175.5179  124.7653   -1.1588 C.3       9      M_B    0.0000
     90 O         176.3553  125.8813   -0.8604 O.3       9      M_B    0.0000
     91 H         174.1748  124.9746    0.5041 H         9      M_B    0.0000
     92 H         175.6878  124.1497    0.9061 H         9      M_B    0.0000
     93 H         176.0990  123.9842   -1.6672 H         9      M_B    0.0000
     94 H         174.6960  125.0786   -1.8177 H         9      M_B    0.0000
     95 C         175.8402  126.6144    0.2305 C.3      10      M_B    0.0000
     96 C         176.3258  128.0585    0.2501 C.3      10      M_B    0.0000
     97 O         177.4922  128.1380    1.0681 O.3      10      M_B    0.0000
     98 H         174.7464  126.6055    0.1639 H        10      M_B    0.0000
     99 H         176.1211  126.1095    1.1617 H        10      M_B    0.0000
    100 H         176.5513  128.4186   -0.7626 H        10      M_B    0.0000
    101 H         175.5260  128.6806    0.6758 H        10      M_B    0.0000
    102 C         177.8137  129.4832    1.3499 C.3      11      M_B    0.0000
    103 C         177.8970  130.3431    0.0949 C.3      11      M_B    0.0000
    104 O         179.1167  131.0828    0.1271 O.3      11      M_B    0.0000
    105 H         177.0403  129.8894    2.0115 H        11      M_B    0.0000
    106 H         178.7655  129.5145    1.8923 H        11      M_B    0.0000
    107 H         177.8532  129.7291   -0.8145 H        11      M_B    0.0000
    108 H         177.0405  131.0319    0.0971 H        11      M_B    0.0000
    109 C         179.5621  131.3685   -1.1816 C.3      12      M_B    0.0000
    110 C         180.9162  132.0666   -1.2024 C.3      12      M_B    0.0000
    111 O         180.7036  133.4775   -1.2111 O.3      12      M_B    0.0000
    112 H         179.6378  130.4240   -1.7320 H        12      M_B    0.0000
    113 H         178.8109  131.9877   -1.6849 H        12      M_B    0.0000
    114 H         181.5259  131.7833   -0.3339 H        12      M_B    0.0000
    115 H         181.4424  131.7610   -2.1176 H        12      M_B    0.0000
    116 C         181.8353  134.1499   -1.7207 C.3      13      M_B    0.0000
    117 C         182.6090  134.8989   -0.6428 C.3      13      M_B    0.0000
    118 O         182.4928  136.3000   -0.8862 O.3      13      M_B    0.0000
    119 H         182.4950  133.4080   -2.1847 H        13      M_B    0.0000
    120 H         181.5123  134.8445   -2.5045 H        13      M_B    0.0000
    121 H         182.2319  134.6587    0.3603 H        13      M_B    0.0000
    122 H         183.6628  134.5932   -0.7061 H        13      M_B    0.0000
    123 C         182.6009  137.0268    0.3190 C.3      14      M_B    0.0000
    124 C         182.5749  138.5345    0.1007 C.3      14      M_B    0.0000
    125 O         183.8032  139.0865    0.5722 O.3      14      M_B    0.0000
    126 H         181.7629  136.7444    0.9663 H        14      M_B    0.0000
    127 H         183.5270  136.7354    0.8274 H        14      M_B    0.0000
    128 H         182.4333  138.7829   -0.9597 H        14      M_B    0.0000
    129 H         181.7334  138.9469    0.6750 H        14      M_B    0.0000
    130 C         183.7783  140.4959    0.4984 C.3      15      M_B    0.0000
    131 C         184.6261  141.0399   -0.6447 C.3      15      M_B    0.0000
    132 O         184.8043  142.4427   -0.4548 O.3      15      M_B    0.0000
    133 H         182.7392  140.8136    0.3561 H        15      M_B    0.0000
    134 H         184.1242  140.9075    1.4534 H        15      M_B    0.0000
    135 H         185.6026  140.5395   -0.6919 H        15      M_B    0.0000
    136 H         184.0886  140.8539   -1.5852 H        15      M_B    0.0000
    137 C         183.9610  142.9188    0.5721 C.3      16      M_B    0.0000
    138 C         183.6376  144.4007    0.4276 C.3      16      M_B    0.0000
    139 O         184.6077  145.1537    1.1540 O.3      16      M_B    0.0000
    140 H         183.0281  142.3444    0.5438 H        16      M_B    0.0000
    141 H         184.4389  142.7298    1.5401 H        16      M_B    0.0000
    142 H         183.6344  144.7086   -0.6265 H        16      M_B    0.0000
    143 H         182.6370  144.5731    0.8485 H        16      M_B    0.0000
    144 C         184.1614  146.4771    1.3592 C.3      17      M_B    0.0000
    145 C         184.5136  147.4025    0.2013 C.3      17      M_B    0.0000
    146 O         185.1917  148.5460    0.7194 O.3      17      M_B    0.0000
    147 H         183.0727  146.4566    1.4826 H        17      M_B    0.0000
    148 H         184.5948  146.8573    2.2912 H        17      M_B    0.0000
    149 H         185.1453  146.8941   -0.5395 H        17      M_B    0.0000
    150 H         183.5773  147.7102   -0.2853 H        17      M_B    0.0000
    151 C         185.0747  149.6395   -0.1656 C.3      18      M_B    0.0000
    152 C         186.1614  150.6862    0.0463 C.3      18      M_B    0.0000
    153 O         185.5826  151.9824   -0.0973 O.3      18      M_B    0.0000
    154 H         185.1391  149.2591   -1.1913 H        18      M_B    0.0000
    155 H         184.0849  150.0930   -0.0404 H        18      M_B    0.0000
    156 H         186.6236  150.5882    1.0377 H        18      M_B    0.0000
    157 H         186.9345  150.5337   -0.7200 H        18      M_B    0.0000
    158 C         186.3380  152.9471    0.6038 C.3      19      M_B    0.0000
    159 C         185.7498  154.3482    0.4933 C.3      19      M_B    0.0000
    160 O         186.7982  155.2605    0.1703 O.3      19      M_B    0.0000
    161 H         186.3718  152.6552    1.6595 H        19      M_B    0.0000
    162 H         187.3656  152.9384    0.2230 H        19      M_B    0.0000
    163 H         184.9632  154.3928   -0.2719 H        19      M_B    0.0000
    164 H         185.3108  154.6105    1.4661 H        19      M_B    0.0000
    165 C         186.2764  156.5412   -0.1123 C.3      20      M_B    0.0000
    166 C         187.2315  157.6636    0.2740 C.3      20      M_B    0.0000
    167 O         186.5312  158.9048    0.2041 O.3      20      M_B    0.0000
    168 H         186.0724  156.5989   -1.1875 H        20      M_B    0.0000
    169 H         185.3225  156.6599    0.4141 H        20      M_B    0.0000
    170 H         187.6350  157.5157    1.2846 H        20      M_B    0.0000
    171 H         188.0651  157.6625   -0.4424 H        20      M_B    0.0000
    172 C         187.3670  159.9218   -0.3055 C.3      21      M_B    0.0000
    173 C         187.0632  161.2886    0.2954 C.3      21      M_B    0.0000
    174 O         186.5704  162.1425   -0.7360 O.3      21      M_B    0.0000
    175 H         188.4064  159.6557   -0.0823 H        21      M_B    0.0000
    176 H         187.2593  159.9568   -1.3956 H        21      M_B    0.0000
    177 H         186.3265  161.2143    1.1064 H        21      M_B    0.0000
    178 H         187.9985  161.6958    0.7045 H        21      M_B    0.0000
    179 C         185.7044  163.1214   -0.2025 C.3      22      M_B    0.0000
    180 C         186.0099  164.5215   -0.7200 C.3      22      M_B    0.0000
    181 O         185.6027  165.4717    0.2634 O.3      22      M_B    0.0000
    182 H         184.6768  162.8554   -0.4749 H        22      M_B    0.0000
    183 H         185.7750  163.0998    0.8909 H        22      M_B    0.0000
    184 H         187.0791  164.6423   -0.9399 H        22      M_B    0.0000
    185 H         185.4397  164.6734   -1.6472 H        22      M_B    0.0000
    186 C         186.3910  166.6401    0.1854 C.3      23      M_B    0.0000
    187 C         185.6102  167.9006    0.5362 C.3      23      M_B    0.0000
    188 O         186.0580  168.9645   -0.3025 O.3      23      M_B    0.0000
    189 H         187.2311  166.5342    0.8811 H        23      M_B    0.0000
    190 H         186.8049  166.7222   -0.8261 H        23      M_B    0.0000
    191 H         184.5298  167.7504    0.4091 H        23      M_B    0.0000
    192 H         185.8112  168.1431    1.5892 H        23      M_B    0.0000
    193 C         185.0112  169.8781   -0.5520 C.3      24      M_B    0.0000
    194 C         185.4891  171.3243   -0.5876 C.3      24      M_B    0.0000
    195 O         184.5174  172.1435    0.0610 O.3      24      M_B    0.0000
    196 H         184.5593  169.6265   -1.5181 H        24      M_B    0.0000
    197 H         184.2411  169.7543    0.2179 H        24      M_B    0.0000
    198 H         186.4643  171.4358   -0.0950 H        24      M_B    0.0000
    199 H         185.5894  171.6236   -1.6404 H        24      M_B    0.0000
    200 C         184.6772  173.4962   -0.3095 C.3      25      M_B    0.0000
    201 C         185.2512  174.3497    0.8145 C.3      25      M_B    0.0000
    202 O         185.0361  175.7248    0.5004 O.3      25      M_B    0.0000
    203 H         185.3526  173.5383   -1.1715 H        25      M_B    0.0000
    204 H         183.7068  173.8942   -0.6273 H        25      M_B    0.0000
    205 H         184.7856  174.1068    1.7791 H        25      M_B    0.0000
    206 H         186.3289  174.1443    0.8813 H        25      M_B    0.0000
    207 C         184.4151  175.8579   -0.7603 C.3      26      M_B    0.0000
    208 C         184.6397  177.2295   -1.3844 C.3      26      M_B    0.0000
    209 O         183.5996  178.1050   -0.9515 O.3      26      M_B    0.0000
    210 H         184.8239  175.0900   -1.4268 H        26      M_B    0.0000
    211 H         183.3419  175.6652   -0.6494 H        26      M_B    0.0000
    212 H         185.6187  177.6411   -1.1046 H        26      M_B    0.0000
    213 H         184.6040  177.1160   -2.4770 H        26      M_B    0.0000
    214 C         184.1338  179.2043   -0.2451 C.3      27      M_B    0.0000
    215 C         183.2253  180.4267   -0.2856 C.3      27      M_B    0.0000
    216 O         184.0208  181.5947   -0.0885 O.3      27      M_B    0.0000
    217 H         184.2818  178.9026    0.7979 H        27      M_B    0.0000
    218 H         185.1166  179.4508   -0.6628 H        27      M_B    0.0000
    219 H         182.6878  180.4944   -1.2409 H        27      M_B    0.0000
    220 H         182.4909  180.3317    0.5266 H        27      M_B    0.0000
    221 C         183.2379  182.6514    0.4244 C.3      28      M_B    0.0000
    222 C         183.2971  183.9021   -0.4438 C.3      28      M_B    0.0000
    223 O         183.0956  185.0451    0.3860 O.3      28      M_B    0.0000
    224 H         182.1989  182.3089    0.4883 H        28      M_B    0.0000
    225 H         183.5753  182.8820    1.4413 H        28      M_B    0.0000
    226 H         184.2599  183.9814   -0.9662 H        28      M_B    0.0000
    227 H         182.4944  183.8353   -1.1917 H        28      M_B    0.0000
    228 C         183.7972  186.1602   -0.1210 C.3      29      M_B    0.0000
    229 C         183.2631  187.4834    0.4133 C.3      29      M_B    0.0000
    230 O         182.9329  188.3232   -0.6919 O.3      29      M_B    0.0000
    231 H         184.8513  186.0595    0.1613 H        29      M_B    0.0000
    232 H         183.7430  186.1460   -1.2155 H        29      M_B    0.0000
    233 H         182.3795  187.3314    1.0475 H        29      M_B    0.0000
    234 H         184.0542  187.9508    1.0164 H        29      M_B    0.0000
    235 C         181.8586  189.1787   -0.3655 C.3      30      M_B    0.0000
    236 C         182.1662  190.6436   -0.6501 C.3      30      M_B    0.0000
    237 O         181.3719  191.4543    0.2145 O.3      30      M_B    0.0000
    238 H         180.9866  188.8749   -0.9556 H        30      M_B    0.0000
    239 H         181.6072  189.0449    0.6928 H        30      M_B    0.0000
    240 H         183.2313  190.8652   -0.5003 H        30      M_B    0.0000
    241 H         181.9073  190.8480   -1.6986 H        30      M_B    0.0000
    242 C         181.6110  192.8245   -0.0264 C.3      31      M_B    0.0000
    243 C         180.6602  193.7317    0.7445 C.3      31      M_B    0.0000
    244 O         180.7333  195.0455    0.1929 O.3      31      M_B    0.0000
    245 H         182.6413  193.0504    0.2710 H        31      M_B    0.0000
    246 H         181.5257  193.0159   -1.1022 H        31      M_B    0.0000
    247 H         179.6275  193.3610    0.6978 H        31      M_B    0.0000
    248 H         180.9822  193.7475    1.7952 H        31      M_B    0.0000
    249 C         179.6996  195.8598    0.7038 C.3      32      M_B    0.0000
    250 C         179.5410  197.1629   -0.0696 C.3      32      M_B    0.0000
    251 O         179.9476  198.2444    0.7676 O.3      32      M_B    0.0000
    252 H         178.7613  195.2961    0.6517 H        32      M_B    0.0000
    253 H         179.9029  196.0706    1.7599 H        32      M_B    0.0000
    254 H         180.1375  197.1561   -0.9917 H        32      M_B    0.0000
    255 H         178.4805  197.2732   -0.3364 H        32      M_B    0.0000
    256 C         179.8947  199.4673    0.0646 C.3      33      M_B    0.0000
    257 C         180.6263  200.5923    0.7861 C.3      33      M_B    0.0000
    258 O         180.1553  201.8414    0.2824 O.3      33      M_B    0.0000
    259 H         180.3516  199.3170   -0.9201 H        33      M_B    0.0000
    260 H         178.8453  199.7407   -0.0938 H        33      M_B    0.0000
    261 H         180.4683  200.5407    1.8717 H        33      M_B    0.0000
    262 H         181.7008  200.4860    0.5806 H        33      M_B    0.0000
    263 C         180.4961  202.8939    1.1593 C.3      34      M_B    0.0000
    264 C         179.7454  204.1831    0.8499 C.3      34      M_B    0.0000
    265 O         180.6949  205.2036    0.5452 O.3      34      M_B    0.0000
    266 H         180.2598  202.5785    2.1818 H        34      M_B    0.0000
    267 H         181.5773  203.0649    1.1053 H        34      M_B    0.0000
    268 H         179.0524  204.0506    0.0084 H        34      M_B    0.0000
    269 H         179.1676  204.4627    1.7421 H        34      M_B    0.0000
    270 C         180.0640  206.3036   -0.0751 C.3      35      M_B    0.0000
    271 C         180.9510  207.5415   -0.1200 C.3      35      M_B    0.0000
    272 O         180.1317  208.6978    0.0458 O.3      35      M_B    0.0000
    273 H         179.8000  206.0150   -1.0988 H        35      M_B    0.0000
    274 H         179.1329  206.5260    0.4585 H        35      M_B    0.0000
    275 H         181.7210  207.5107    0.6625 H        35      M_B    0.0000
    276 H         181.4459  207.5700   -1.1009 H        35      M_B    0.0000
    277 C         180.7004  209.8110   -0.6099 C.3      36      M_B    0.0000
    278 C         181.3282  210.8060    0.3582 C.3      36      M_B    0.0000
    279 O         181.3106  212.1008   -0.2410 O.3      36      M_B    0.0000
    280 H         181.4710  209.4466   -1.2985 H        36      M_B    0.0000
    281 H         179.9259  210.3043   -1.2082 H        36      M_B    0.0000
    282 H         180.7901  210.8270    1.3153 H        36      M_B    0.0000
    283 H         182.3652  210.4924    0.5432 H        36      M_B    0.0000
    284 C         181.6051  213.0973    0.7145 C.3      37      M_B    0.0000
    285 C         181.6800  214.4919    0.1054 C.3      37      M_B    0.0000
    286 O         182.8508  215.1432    0.5963 O.3      37      M_B    0.0000
    287 H         180.8200  213.0822    1.4789 H        37      M_B    0.0000
    288 H         182.5527  212.8489    1.2057 H        37      M_B    0.0000
    289 H         181.7055  214.4486   -0.9917 H        37      M_B    0.0000
    290 H         180.7838  215.0472    0.4159 H        37      M_B    0.0000
    291 C         183.1324  216.3011   -0.1604 C.3      38      M_B    0.0000
    292 C         184.0119  217.2939    0.5895 C.3      38      M_B    0.0000
    293 O         183.8766  218.5767   -0.0203 O.3      38      M_B    0.0000
    294 H         183.6431  215.9941   -1.0801 H        38      M_B    0.0000
    295 H         182.1874  216.7763   -0.4472 H        38      M_B    0.0000
    296 H         183.7359  217.3508    1.6509 H        38      M_B    0.0000
    297 H         185.0533  216.9506    0.5137 H        38      M_B    0.0000
    298 C         182.6415  219.1663    0.3257 C.3      39      M_B    0.0000
    299 C         182.5643  220.6383   -0.0598 C.3      39      M_B    0.0000
    300 O         183.1563  221.4153    0.9801 O.3      39      M_B    0.0000
    301 H         181.8439  218.6190   -0.1894 H        39      M_B    0.0000
    302 H         182.4823  219.0500    1.4037 H        39      M_B    0.0000
    303 H         183.0775  220.8302   -1.0116 H        39      M_B    0.0000
    304 H         181.5040  220.9057   -0.1706 H        39      M_B    0.0000
    305 C         184.4229  220.8994    1.3296 C.3      40      M_B    0.0000
    306 C         185.5270  221.9463    1.2482 C.3      40      M_B    0.0000
    307 O         186.1548  221.8508   -0.0294 O.3      40      M_B    0.0000
    308 H         184.3667  220.5175    2.3552 H        40      M_B    0.0000
    309 H         184.6557  220.0541    0.6721 H        40      M_B    0.0000
    310 H         185.1297  222.9593    1.3975 H        40      M_B    0.0000
    311 H         186.2569  221.7332    2.0418 H        40      M_B    0.0000
    312 C         186.7700  223.0731   -0.3762 C.3      41      M_B    0.0000
    313 C         185.7610  224.1687   -0.6975 C.3      41      M_B    0.0000
    314 O         186.4657  225.3899   -0.9160 O.3      41      M_B    0.0000
    315 H         187.3920  223.3953    0.4666 H        41      M_B    0.0000
    316 H         187.4318  222.9067   -1.2337 H        41      M_B    0.0000
    317 H         185.1637  223.9152   -1.5835 H        41      M_B    0.0000
    318 H         185.0869  224.2736    0.1643 H        41      M_B    0.0000
    319 C         186.2395  226.2936    0.1446 C.3      42      M_B    0.0000
    320 C         186.6556  227.7186   -0.1984 C.3      42      M_B    0.0000
    321 O         187.4735  228.2229    0.8563 O.3      42      M_B    0.0000
    322 H         185.1703  226.2807    0.3841 H        42      M_B    0.0000
    323 H         186.7831  225.9449    1.0300 H        42      M_B    0.0000
    324 H         187.2023  227.7578   -1.1501 H        42      M_B    0.0000
    325 H         185.7444  228.3263   -0.2898 H        42      M_B    0.0000
    326 C         188.1114  229.4198    0.4649 C.3      43      M_B    0.0000
    327 C         187.6777  230.6177    1.3006 C.3      43      M_B    0.0000
    328 O         188.0549  231.8125    0.6180 O.3      43      M_B    0.0000
    329 H         189.1935  229.2823    0.5710 H        43      M_B    0.0000
    330 H         187.9017  229.6036   -0.5949 H        43      M_B    0.0000
    331 H         186.5937  230.6113    1.4767 H        43      M_B    0.0000
    332 H         188.1929  230.5607    2.2697 H        43      M_B    0.0000
    333 C         189.4558  231.9837    0.6482 C.3      44      M_B    0.0000
    334 C         189.8661  233.4309    0.8906 C.3      44      M_B    0.0000
    335 O         190.0575  234.0697   -0.3708 O.3      44      M_B    0.0000
    336 H         189.8607  231.3575    1.4513 H        44      M_B    0.0000
    337 H         189.8777  231.6256   -0.2978 H        44      M_B    0.0000
    338 H         189.1073  233.9696    1.4738 H        44      M_B    0.0000
    339 H         190.8086  233.4271    1.4560 H        44      M_B    0.0000
    340 C         189.8395  235.4603   -0.2645 C.3      45      M_B    0.0000
    341 C         188.3724  235.8106   -0.0495 C.3      45      M_B    0.0000
    342 O         188.2297  237.2296   -0.0933 O.3      45      M_B    0.0000
    343 H         190.4250  235.8355    0.5825 H        45      M_B    0.0000
    344 H         190.2150  235.9487   -1.1709 H        45      M_B    0.0000
    345 H         187.7338  235.3445   -0.8118 H        45      M_B    0.0000
    346 H         188.0741  235.4340    0.9390 H        45      M_B    0.0000
    347 C         189.4198  237.8643    0.3231 C.3      46      M_B    0.0000
    348 C         189.2723  239.3768    0.4323 C.3      46      M_B    0.0000
    349 O         190.4412  239.9909   -0.1085 O.3      46      M_B    0.0000
    350 H         189.6995  237.4603    1.3026 H        46      M_B    0.0000
    351 H         190.2210  237.6135   -0.3814 H        46      M_B    0.0000
    352 H         188.3801  239.7314   -0.1009 H        46      M_B    0.0000
    353 H         189.1723  239.6329    1.4965 H        46      M_B    0.0000
    354 C         190.1547  241.2961   -0.5634 C.3      47      M_B    0.0000
    355 C         190.9487  242.3645    0.1778 C.3      47      M_B    0.0000
    356 O         190.3403  243.6333   -0.0588 O.3      47      M_B    0.0000
    357 H         190.3952  241.3477   -1.6313 H        47      M_B    0.0000
    358 H         189.0800  241.4818   -0.4550 H        47      M_B    0.0000
    359 H         190.9852  242.1600    1.2561 H        47      M_B    0.0000
    360 H         191.9745  242.3610   -0.2169 H        47      M_B    0.0000
    361 C         191.0262  244.6532    0.6353 C.3      48      M_B    0.0000
    362 C         190.3972  246.0263    0.4348 C.3      48      M_B    0.0000
    363 O         191.4358  246.9750    0.1958 O.3      48      M_B    0.0000
    364 H         191.0167  244.4076    1.7033 H        48      M_B    0.0000
    365 H         192.0715  244.6656    0.3060 H        48      M_B    0.0000
    366 H         189.6895  246.0236   -0.4050 H        48      M_B    0.0000
    367 H         189.8535  246.2888    1.3533 H        48      M_B    0.0000
    368 C         190.9503  248.0690   -0.5526 C.3      49      M_B    0.0000
    369 C         191.6261  249.3826   -0.1795 C.3      49      M_B    0.0000
    370 O         190.6733  250.4378   -0.3003 O.3      49      M_B    0.0000
    371 H         191.1279  247.8640   -1.6144 H        49      M_B    0.0000
    372 H         189.8671  248.1470   -0.4053 H        49      M_B    0.0000
    373 H         192.0250  249.3511    0.8432 H        49      M_B    0.0000
    374 H         192.4586  249.5472   -0.8780 H        49      M_B    0.0000
    375 C         191.3011  251.6326   -0.7137 C.3      50      M_B    0.0000
    376 C         191.4564  252.6380    0.4205 C.3      50      M_B    0.0000
    377 O         191.4895  253.9522   -0.1343 O.3      50      M_B    0.0000
    378 H         192.2924  251.3809   -1.1072 H        50      M_B    0.0000
    379 H         190.7205  252.0739   -1.5319 H        50      M_B    0.0000
    380 H         190.6340  252.5556    1.1437 H        50      M_B    0.0000
    381 H         192.4029  252.4249    0.9367 H        50      M_B    0.0000
    382 C         192.0000  254.8768    0.8022 C.3      51      M_B    0.0000
    383 C         191.4152  256.2730    0.6286 C.3      51      M_B    0.0000
    384 O         192.4832  257.1915    0.4016 O.3      51      M_B    0.0000
    385 H         191.7635  254.5122    1.8082 H        51      M_B    0.0000
    386 H         193.0914  254.9109    0.7086 H        51      M_B    0.0000
    387 H         190.7046  256.3080   -0.2080 H        51      M_B    0.0000
    388 H         190.8840  256.5367    1.5540 H        51      M_B    0.0000
    389 C         191.9906  258.4169   -0.0968 C.3      52      M_B    0.0000
    390 C         192.8896  259.5969    0.2507 C.3      52      M_B    0.0000
    391 O         192.1464  260.8033    0.0832 O.3      52      M_B    0.0000
    392 H         191.9107  258.3365   -1.1868 H        52      M_B    0.0000
    393 H         190.9822  258.5816    0.2995 H        52      M_B    0.0000
    394 H         193.2636  259.5252    1.2808 H        52      M_B    0.0000
    395 H         193.7466  259.5857   -0.4374 H        52      M_B    0.0000
    396 C         192.9864  261.8510   -0.3519 C.3      53      M_B    0.0000
    397 C         192.6713  263.1779    0.3273 C.3      53      M_B    0.0000
    398 O         192.4636  264.1687   -0.6782 O.3      53      M_B    0.0000
    399 H         194.0233  261.5733   -0.1314 H        53      M_B    0.0000
    400 H         192.8931  261.9524   -1.4392 H        53      M_B    0.0000
    401 H         191.7820  263.0987    0.9669 H        53      M_B    0.0000
    402 H         193.5322  263.4528    0.9526 H        53      M_B    0.0000
    403 C         191.9300  265.3477   -0.1147 C.3      54      M_B    0.0000
    404 C         192.1798  266.5776   -0.9787 C.3      54      M_B    0.0000
    405 O         191.9561  267.7447   -0.1890 O.3      54      M_B    0.0000
    406 H         190.8498  265.2105    0.0087 H        54      M_B    0.0000
    407 H         192.3630  265.4925    0.8816 H        54      M_B    0.0000
    408 H         193.2026  266.5844   -1.3789 H        54      M_B    0.0000
    409 H         191.4723  266.5522   -1.8194 H        54      M_B    0.0000
    410 C         190.5804  267.9077    0.0824 C.3      55      M_B    0.0000
    411 C         190.0185  269.2045   -0.4868 C.3      55      M_B    0.0000
    412 O         190.1926  270.2411    0.4781 O.3      55      M_B    0.0000
    413 H         190.0414  267.0607   -0.3569 H        55      M_B    0.0000
    414 H         190.4262  267.8738    1.1670 H        55      M_B    0.0000
    415 H         190.5165  269.4778   -1.4267 H        55      M_B    0.0000
    416 H         188.9482  269.0531   -0.6856 H        55      M_B    0.0000
    417 C         191.2154  271.1283    0.0788 C.3      56      M_B    0.0000
    418 C         191.0315  272.5306    0.6453 C.3      56      M_B    0.0000
    419 O         191.3672  273.4801   -0.3655 O.3      56      M_B    0.0000
    420 H         192.1737  270.7251    0.4253 H        56      M_B    0.0000
    421 H         191.2461  271.1649   -1.0161 H        56      M_B    0.0000
    422 H         190.0000  272.6926    0.9859 H        56      M_B    0.0000
    423 H         191.7082  272.6420    1.5042 H        56      M_B    0.0000
    424 C         190.6028  274.6577   -0.2182 C.3      57      M_B    0.0000
    425 C         191.3970  275.9180   -0.5380 C.3      57      M_B    0.0000
    426 O         190.7620  277.0306    0.0903 O.3      57      M_B    0.0000
    427 H         189.7429  274.5952   -0.8946 H        57      M_B    0.0000
    428 H         190.2173  274.7047    0.8066 H        57      M_B    0.0000
    429 H         192.4364  275.8341   -0.1934 H        57      M_B    0.0000
    430 H         191.3967  276.0526   -1.6287 H        57      M_B    0.0000
    431 C         189.5423  277.3369   -0.5509 C.3      58      M_B    0.0000
    432 C         189.5666  278.6940   -1.2431 C.3      58      M_B    0.0000
    433 O         189.1927  279.6962   -0.2988 O.3      58      M_B    0.0000
    434 H         189.3414  276.5587   -1.2958 H        58      M_B    0.0000
    435 H         188.7346  277.3056    0.1892 H        58      M_B    0.0000
    436 H         190.5607  278.9161   -1.6536 H        58      M_B    0.0000
    437 H         188.8418  278.6677   -2.0689 H        58      M_B    0.0000
    438 C         189.8299  280.9212   -0.5919 C.3      59      M_B    0.0000
    439 C         191.3282  280.8848   -0.3175 C.3      59      M_B    0.0000
    440 O         191.7638  282.2013    0.0189 O.3      59      M_B    0.0000
    441 H         189.6654  281.1485   -1.6512 H        59      M_B    0.0000
    442 H         189.3580  281.7164   -0.0037 H        59      M_B    0.0000
    443 H         191.5690  280.1891    0.4974 H        59      M_B    0.0000
    444 H         191.8334  280.5449   -1.2325 H        59      M_B    0.0000
    445 C         191.0134  283.1699   -0.6821 C.3      60      M_B    0.0000
    446 C         191.4962  284.5909   -0.4191 C.3      60      M_B    0.0000
    447 O         190.3636  285.4572   -0.3696 O.3      60      M_B    0.0000
    448 H         191.0944  282.9570   -1.7540 H        60      M_B    0.0000
    449 H         189.9583  283.0723   -0.4022 H        60      M_B    0.0000
    450 H         192.0599  284.6544    0.5213 H        60      M_B    0.0000
    451 H         192.1569  284.8843   -1.2469 H        60      M_B    0.0000
    452 C         190.6828  286.7273   -0.8966 C.3      61      M_B    0.0000
    453 C         192.0354  287.2395   -0.4174 C.3      61      M_B    0.0000
    454 O         191.9274  288.6373   -0.1521 O.3      61      M_B    0.0000
    455 H         190.6955  286.6517   -1.9898 H        61      M_B    0.0000
    456 H         189.8925  287.4348   -0.6212 H        61      M_B    0.0000
    457 H         192.3669  286.7097    0.4856 H        61      M_B    0.0000
    458 H         192.7682  287.0651   -1.2178 H        61      M_B    0.0000
    459 C         192.9446  289.0578    0.7317 C.3      62      M_B    0.0000
    460 C         192.8019  290.5188    1.1398 C.3      62      M_B    0.0000
    461 O         193.7308  291.2971    0.3866 O.3      62      M_B    0.0000
    462 H         192.9010  288.4297    1.6286 H        62      M_B    0.0000
    463 H         193.9183  288.8924    0.2567 H        62      M_B    0.0000
    464 H         191.7802  290.8838    0.9696 H        62      M_B    0.0000
    465 H         193.0302  290.5964    2.2121 H        62      M_B    0.0000
    466 C         193.5207  292.6757    0.6061 C.3      63      M_B    0.0000
    467 C         194.2053  293.5483   -0.4385 C.3      63      M_B    0.0000
    468 O         194.6716  294.7390    0.1944 O.3      63      M_B    0.0000
    469 H         192.4419  292.8666    0.5807 H        63      M_B    0.0000
    470 H         193.8809  292.9344    1.6083 H        63      M_B    0.0000
    471 H         195.0439  293.0212   -0.9129 H        63      M_B    0.0000
    472 H         193.4644  293.7993   -1.2105 H        63      M_B    0.0000
    473 C         195.5521  294.4297    1.2535 C.3      64      M_B    0.0000
    474 C         196.2606  295.6597    1.8073 C.3      64      M_B    0.0000
    475 O         197.4339  295.8999    1.0317 O.3      64      M_B    0.0000
    476 H         194.9721  293.9593    2.0555 H        64      M_B    0.0000
    477 H         196.2876  293.6975    0.9013 H        64      M_B    0.0000
    478 H         195.6072  296.5421    1.7843 H        64      M_B    0.0000
    479 H         196.5366  295.4522    2.8507 H        64      M_B    0.0000
    480 C         197.8351  297.2491    1.1380 C.3      65      M_B    0.0000
    481 C         196.8815  298.2035    0.4301 C.3      65      M_B    0.0000
    482 O         197.6312  299.3060   -0.0782 O.3      65      M_B    0.0000
    483 H         197.8800  297.5109    2.2011 H        65      M_B    0.0000
    484 H         198.8459  297.3522    0.7270 H        65      M_B    0.0000
    485 H         196.3479  297.7021   -0.3884 H        65      M_B    0.0000
    486 H         196.1460  298.5575    1.1661 H        65      M_B    0.0000
    487 C         198.6934  299.6315    0.7927 C.3      66      M_B    0.0000
    488 C         199.3581  300.9562    0.4397 C.3      66      M_B    0.0000
    489 O         200.7738  300.7841    0.4845 O.3      66      M_B    0.0000
    490 H         198.2954  299.6911    1.8120 H        66      M_B    0.0000
    491 H         199.4314  298.8216    0.7705 H        66      M_B    0.0000
    492 H         199.0528  301.3044   -0.5561 H        66      M_B    0.0000
    493 H         199.0472  301.7020    1.1848 H        66      M_B    0.0000
    494 C         201.4220  301.7757   -0.2831 C.3      67      M_B    0.0000
    495 C         202.5873  302.4225    0.4552 C.3      67      M_B    0.0000
    496 O         202.8801  303.6758   -0.1606 O.3      67      M_B    0.0000
    497 H         201.7951  301.3089   -1.2018 H        67      M_B    0.0000
    498 H         200.6886  302.5374   -0.5711 H        67      M_B    0.0000
    499 H         202.3546  302.5708    1.5182 H        67      M_B    0.0000
    500 H         203.4551  301.7529    0.3741 H        67      M_B    0.0000
    501 C         204.2740  303.8924   -0.2140 C.3      68      M_B    0.0000
    502 C         204.6873  305.2184    0.4124 C.3      68      M_B    0.0000
    503 O         205.8278  305.7178   -0.2844 O.3      68      M_B    0.0000
    504 H         204.7690  303.0741    0.3209 H        68      M_B    0.0000
    505 H         204.5997  303.8516   -1.2596 H        68      M_B    0.0000
    506 H         203.8708  305.9518    0.3721 H        68      M_B    0.0000
    507 H         204.9427  305.0323    1.4651 H        68      M_B    0.0000
    508 C         206.5921  306.5624    0.5494 C.3      69      M_B    0.0000
    509 C         207.1153  307.7928   -0.1813 C.3      69      M_B    0.0000
    510 O         208.4132  308.1062    0.3218 O.3      69      M_B    0.0000
    511 H         205.9594  306.8840    1.3843 H        69      M_B    0.0000
    512 H         207.4271  305.9881    0.9666 H        69      M_B    0.0000
    513 H         207.1625  307.6244   -1.2655 H        69      M_B    0.0000
    514 H         206.4252  308.6250    0.0168 H        69      M_B    0.0000
    515 C         209.0673  309.0280   -0.5239 C.3      70      M_B    0.0000
    516 C         210.1889  309.7799    0.1819 C.3      70      M_B    0.0000
    517 O         210.4395  310.9949   -0.5230 O.3      70      M_B    0.0000
    518 H         209.4854  308.4768   -1.3738 H        70      M_B    0.0000
    519 H         208.3283  309.7353   -0.9171 H        70      M_B    0.0000
    520 H         209.9291  309.9976    1.2265 H        70      M_B    0.0000
    521 H         211.0862  309.1453    0.1664 H        70      M_B    0.0000
    522 O         207.8583  309.6271   -3.5321 O.2      71      M_C    0.0000
    523 C         208.6132  309.6324   -2.5638 C.2      71      M_C    0.0000
    524 C         208.2994  310.4436   -1.3145 C.3      71      M_C    0.0000
    525 O         209.2593  311.4696   -1.1350 O.3      71      M_C    0.0000
    526 N         209.7702  308.8827   -2.4833 N.3      71      M_C    0.0000
    527 C         210.8993  308.9775   -3.4120 C.3      71      M_C    0.0000
    528 C         210.4960  309.6610   -4.7430 C.3      71      M_C    0.0000
    529 C         211.6902  309.7026   -5.7117 C.3      71      M_C    0.0000
    530 C         212.8432  310.4844   -5.0559 C.3      71      M_C    0.0000
    531 C         213.2882  309.7866   -3.7532 C.3      71      M_C    0.0000
    532 C         212.0848  309.7506   -2.7863 C.3      71      M_C    0.0000
    533 C         213.7667  308.3602   -4.1103 C.3      71      M_C    0.0000
    534 C         212.5839  307.5662   -4.7133 C.3      71      M_C    0.0000
    535 C         212.1457  308.2657   -6.0148 C.3      71      M_C    0.0000
    536 C         211.3798  307.5413   -3.7493 C.3      71      M_C    0.0000
    537 H         208.2029  309.7696   -0.4527 H        71      M_C    0.0000
    538 H         207.3270  310.9270   -1.4627 H        71      M_C    0.0000
    539 H         209.9395  308.4211   -1.5909 H        71      M_C    0.0000
    540 H         209.6573  309.1235   -5.2047 H        71      M_C    0.0000
    541 H         210.1454  310.6851   -4.5721 H        71      M_C    0.0000
    542 H         211.3915  310.1980   -6.6423 H        71      M_C    0.0000
    543 H         213.6891  310.5548   -5.7508 H        71      M_C    0.0000
    544 H         212.5245  311.5118   -4.8405 H        71      M_C    0.0000
    545 H         214.1029  310.3621   -3.2963 H        71      M_C    0.0000
    546 H         211.7918  310.7806   -2.5482 H        71      M_C    0.0000
    547 H         212.3716  309.2944   -1.8304 H        71      M_C    0.0000
    548 H         214.5546  308.4399   -4.8725 H        71      M_C    0.0000
    549 H         212.8876  306.5371   -4.9423 H        71      M_C    0.0000
    550 H         211.3290  307.7049   -6.4857 H        71      M_C    0.0000
    551 H         212.9754  308.2790   -6.7323 H        71      M_C    0.0000
    552 H         211.6414  307.0034   -2.8289 H        71      M_C    0.0000
    553 H         210.5587  306.9698   -4.2035 H        71      M_C    0.0000
    554 H         214.2192  307.8472   -3.2617 H        71      M_C    0.0000
    555 H         144.7381  110.2999   -0.4556 H         0      M_A    0.0000
@<TRIPOS>BOND
     1     1     2      1
     2     1     6      1
     3     1    10      1
     4     1    15      1
     5     2     3      1
     6     2    16      1
     7     2    17      1
     8     3     4      1
     9     3     9      1
    10     3    18      1
    11     4     5      1
    12     4    19      1
    13     4    20      1
    14     5     6      1
    15     5     7      1
    16     5    21      1
    17     6    22      1
    18     6    23      1
    19     7     8      1
    20     7    24      1
    21     7   555      H
    22     8     9      1
    23     8    10      1
    24     8    25      1
    25     9    26      1
    26     9    27      1
    27    10    11      1
    28    10    28      1
    29    11    12      1
    30    11    29      1
    31    12    13      2
    32    12    14      1
    33    14    30      1
    34    14    31      1
    35    14    32      1
    36    32    33      1
    37    32    35      1
    38    32    36      1
    39    33    34      1
    40    33    37      1
    41    33    38      1
    42    34    39      1
    43    39    40      1
    44    39    42      1
    45    39    43      1
    46    40    41      1
    47    40    44      1
    48    40    45      1
    49    41    46      1
    50    46    47      1
    51    46    49      1
    52    46    50      1
    53    47    48      1
    54    47    51      1
    55    47    52      1
    56    48    53      1
    57    53    54      1
    58    53    56      1
    59    53    57      1
    60    54    55      1
    61    54    58      1
    62    54    59      1
    63    55    60      1
    64    60    61      1
    65    60    63      1
    66    60    64      1
    67    61    62      1
    68    61    65      1
    69    61    66      1
    70    62    67      1
    71    67    68      1
    72    67    70      1
    73    67    71      1
    74    68    69      1
    75    68    72      1
    76    68    73      1
    77    69    74      1
    78    74    75      1
    79    74    77      1
    80    74    78      1
    81    75    76      1
    82    75    79      1
    83    75    80      1
    84    76    81      1
    85    81    82      1
    86    81    84      1
    87    81    85      1
    88    82    83      1
    89    82    86      1
    90    82    87      1
    91    83    88      1
    92    88    89      1
    93    88    91      1
    94    88    92      1
    95    89    90      1
    96    89    93      1
    97    89    94      1
    98    90    95      1
    99    95    96      1
   100    95    98      1
   101    95    99      1
   102    96    97      1
   103    96   100      1
   104    96   101      1
   105    97   102      1
   106   102   103      1
   107   102   105      1
   108   102   106      1
   109   103   104      1
   110   103   107      1
   111   103   108      1
   112   104   109      1
   113   109   110      1
   114   109   112      1
   115   109   113      1
   116   110   111      1
   117   110   114      1
   118   110   115      1
   119   111   116      1
   120   116   117      1
   121   116   119      1
   122   116   120      1
   123   117   118      1
   124   117   121      1
   125   117   122      1
   126   118   123      1
   127   123   124      1
   128   123   126      1
   129   123   127      1
   130   124   125      1
   131   124   128      1
   132   124   129      1
   133   125   130      1
   134   130   131      1
   135   130   133      1
   136   130   134      1
   137   131   132      1
   138   131   135      1
   139   131   136      1
   140   132   137      1
   141   137   138      1
   142   137   140      1
   143   137   141      1
   144   138   139      1
   145   138   142      1
   146   138   143      1
   147   139   144      1
   148   144   145      1
   149   144   147      1
   150   144   148      1
   151   145   146      1
   152   145   149      1
   153   145   150      1
   154   146   151      1
   155   151   152      1
   156   151   154      1
   157   151   155      1
   158   152   153      1
   159   152   156      1
   160   152   157      1
   161   153   158      1
   162   158   159      1
   163   158   161      1
   164   158   162      1
   165   159   160      1
   166   159   163      1
   167   159   164      1
   168   160   165      1
   169   165   166      1
   170   165   168      1
   171   165   169      1
   172   166   167      1
   173   166   170      1
   174   166   171      1
   175   167   172      1
   176   172   173      1
   177   172   175      1
   178   172   176      1
   179   173   174      1
   180   173   177      1
   181   173   178      1
   182   174   179      1
   183   179   180      1
   184   179   182      1
   185   179   183      1
   186   180   181      1
   187   180   184      1
   188   180   185      1
   189   181   186      1
   190   186   187      1
   191   186   189      1
   192   186   190      1
   193   187   188      1
   194   187   191      1
   195   187   192      1
   196   188   193      1
   197   193   194      1
   198   193   196      1
   199   193   197      1
   200   194   195      1
   201   194   198      1
   202   194   199      1
   203   195   200      1
   204   200   201      1
   205   200   203      1
   206   200   204      1
   207   201   202      1
   208   201   205      1
   209   201   206      1
   210   202   207      1
   211   207   208      1
   212   207   210      1
   213   207   211      1
   214   208   209      1
   215   208   212      1
   216   208   213      1
   217   209   214      1
   218   214   215      1
   219   214   217      1
   220   214   218      1
   221   215   216      1
   222   215   219      1
   223   215   220      1
   224   216   221      1
   225   221   222      1
   226   221   224      1
   227   221   225      1
   228   222   223      1
   229   222   226      1
   230   222   227      1
   231   223   228      1
   232   228   229      1
   233   228   231      1
   234   228   232      1
   235   229   230      1
   236   229   233      1
   237   229   234      1
   238   230   235      1
   239   235   236      1
   240   235   238      1
   241   235   239      1
   242   236   237      1
   243   236   240      1
   244   236   241      1
   245   237   242      1
   246   242   243      1
   247   242   245      1
   248   242   246      1
   249   243   244      1
   250   243   247      1
   251   243   248      1
   252   244   249      1
   253   249   250      1
   254   249   252      1
   255   249   253      1
   256   250   251      1
   257   250   254      1
   258   250   255      1
   259   251   256      1
   260   256   257      1
   261   256   259      1
   262   256   260      1
   263   257   258      1
   264   257   261      1
   265   257   262      1
   266   258   263      1
   267   263   264      1
   268   263   266      1
   269   263   267      1
   270   264   265      1
   271   264   268      1
   272   264   269      1
   273   265   270      1
   274   270   271      1
   275   270   273      1
   276   270   274      1
   277   271   272      1
   278   271   275      1
   279   271   276      1
   280   272   277      1
   281   277   278      1
   282   277   280      1
   283   277   281      1
   284   278   279      1
   285   278   282      1
   286   278   283      1
   287   279   284      1
   288   284   285      1
   289   284   287      1
   290   284   288      1
   291   285   286      1
   292   285   289      1
   293   285   290      1
   294   286   291      1
   295   291   292      1
   296   291   294      1
   297   291   295      1
   298   292   293      1
   299   292   296      1
   300   292   297      1
   301   293   298      1
   302   298   299      1
   303   298   301      1
   304   298   302      1
   305   299   300      1
   306   299   303      1
   307   299   304      1
   308   300   305      1
   309   305   306      1
   310   305   308      1
   311   305   309      1
   312   306   307      1
   313   306   310      1
   314   306   311      1
   315   307   312      1
   316   312   313      1
   317   312   315      1
   318   312   316      1
   319   313   314      1
   320   313   317      1
   321   313   318      1
   322   314   319      1
   323   319   320      1
   324   319   322      1
   325   319   323      1
   326   320   321      1
   327   320   324      1
   328   320   325      1
   329   321   326      1
   330   326   327      1
   331   326   329      1
   332   326   330      1
   333   327   328      1
   334   327   331      1
   335   327   332      1
   336   328   333      1
   337   333   334      1
   338   333   336      1
   339   333   337      1
   340   334   335      1
   341   334   338      1
   342   334   339      1
   343   335   340      1
   344   340   341      1
   345   340   343      1
   346   340   344      1
   347   341   342      1
   348   341   345      1
   349   341   346      1
   350   342   347      1
   351   347   348      1
   352   347   350      1
   353   347   351      1
   354   348   349      1
   355   348   352      1
   356   348   353      1
   357   349   354      1
   358   354   355      1
   359   354   357      1
   360   354   358      1
   361   355   356      1
   362   355   359      1
   363   355   360      1
   364   356   361      1
   365   361   362      1
   366   361   364      1
   367   361   365      1
   368   362   363      1
   369   362   366      1
   370   362   367      1
   371   363   368      1
   372   368   369      1
   373   368   371      1
   374   368   372      1
   375   369   370      1
   376   369   373      1
   377   369   374      1
   378   370   375      1
   379   375   376      1
   380   375   378      1
   381   375   379      1
   382   376   377      1
   383   376   380      1
   384   376   381      1
   385   377   382      1
   386   382   383      1
   387   382   385      1
   388   382   386      1
   389   383   384      1
   390   383   387      1
   391   383   388      1
   392   384   389      1
   393   389   390      1
   394   389   392      1
   395   389   393      1
   396   390   391      1
   397   390   394      1
   398   390   395      1
   399   391   396      1
   400   396   397      1
   401   396   399      1
   402   396   400      1
   403   397   398      1
   404   397   401      1
   405   397   402      1
   406   398   403      1
   407   403   404      1
   408   403   406      1
   409   403   407      1
   410   404   405      1
   411   404   408      1
   412   404   409      1
   413   405   410      1
   414   410   411      1
   415   410   413      1
   416   410   414      1
   417   411   412      1
   418   411   415      1
   419   411   416      1
   420   412   417      1
   421   417   418      1
   422   417   420      1
   423   417   421      1
   424   418   419      1
   425   418   422      1
   426   418   423      1
   427   419   424      1
   428   424   425      1
   429   424   427      1
   430   424   428      1
   431   425   426      1
   432   425   429      1
   433   425   430      1
   434   426   431      1
   435   431   432      1
   436   431   434      1
   437   431   435      1
   438   432   433      1
   439   432   436      1
   440   432   437      1
   441   433   438      1
   442   438   439      1
   443   438   441      1
   444   438   442      1
   445   439   440      1
   446   439   443      1
   447   439   444      1
   448   440   445      1
   449   445   446      1
   450   445   448      1
   451   445   449      1
   452   446   447      1
   453   446   450      1
   454   446   451      1
   455   447   452      1
   456   452   453      1
   457   452   455      1
   458   452   456      1
   459   453   454      1
   460   453   457      1
   461   453   458      1
   462   454   459      1
   463   459   460      1
   464   459   462      1
   465   459   463      1
   466   460   461      1
   467   460   464      1
   468   460   465      1
   469   461   466      1
   470   466   467      1
   471   466   469      1
   472   466   470      1
   473   467   468      1
   474   467   471      1
   475   467   472      1
   476   468   473      1
   477   473   474      1
   478   473   476      1
   479   473   477      1
   480   474   475      1
   481   474   478      1
   482   474   479      1
   483   475   480      1
   484   480   481      1
   485   480   483      1
   486   480   484      1
   487   481   482      1
   488   481   485      1
   489   481   486      1
   490   482   487      1
   491   487   488      1
   492   487   490      1
   493   487   491      1
   494   488   489      1
   495   488   492      1
   496   488   493      1
   497   489   494      1
   498   494   495      1
   499   494   497      1
   500   494   498      1
   501   495   496      1
   502   495   499      1
   503   495   500      1
   504   496   501      1
   505   501   502      1
   506   501   504      1
   507   501   505      1
   508   502   503      1
   509   502   506      1
   510   502   507      1
   511   503   508      1
   512   508   509      1
   513   508   511      1
   514   508   512      1
   515   509   510      1
   516   509   513      1
   517   509   514      1
   518   510   515      1
   519   515   516      1
   520   515   518      1
   521   515   519      1
   522   516   517      1
   523   516   520      1
   524   516   521      1
   525   517   525      1
   526   522   523      2
   527   523   524      1
   528   523   526      1
   529   524   525      1
   530   524   537      1
   531   524   538      1
   532   526   527      1
   533   526   539      1
   534   527   528      1
   535   527   532      1
   536   527   536      1
   537   528   529      1
   538   528   540      1
   539   528   541      1
   540   529   530      1
   541   529   535      1
   542   529   542      1
   543   530   531      1
   544   530   543      1
   545   530   544      1
   546   531   532      1
   547   531   533      1
   548   531   545      1
   549   532   546      1
   550   532   547      1
   551   533   534      1
   552   533   548      1
   553   533   554      H
   554   534   535      1
   555   534   536      1
   556   534   549      1
   557   535   550      1
   558   535   551      1
   559   536   552      1
   560   536   553      1
