###
### Created by PolyChef-cpp17 on Thu Mar 27 21:37:15 2025
###

@<TRIPOS>MOLECULE
NO_INFO
548 553 1 0 0
SMALL
USER_CHARGES


@<TRIPOS>ATOM
      1 C          32.8079  265.6046   -1.3562 C.3       0      M_A    0.0000
      2 C          33.2777  264.9276   -2.6570 C.3       0      M_A    0.0000
      3 C          32.4911  263.6256   -2.8849 C.3       0      M_A    0.0000
      4 C          32.7324  262.6782   -1.6990 C.3       0      M_A    0.0000
      5 C          32.2551  263.3355   -0.3866 C.3       0      M_A    0.0000
      6 C          33.0552  264.6375   -0.1804 C.3       0      M_A    0.0000
      7 C          30.7520  263.6999   -0.4556 C.3       0      M_A    0.0000
      8 C          30.4982  264.6165   -1.6749 C.3       0      M_A    0.0000
      9 C          30.9902  263.9467   -2.9794 C.3       0      M_A    0.0000
     10 C          31.2998  265.9338   -1.4897 C.3       0      M_A    0.0000
     11 N          30.8335  266.7333   -0.3648 N.3       0      M_A    0.0000
     12 C          31.5331  267.8326    0.1111 C.2       0      M_A    0.0000
     13 O          32.2860  267.7649    1.0818 O.2       0      M_A    0.0000
     14 C          31.3327  269.1428   -0.6719 C.3       0      M_A    0.0000
     15 H          33.3822  266.5249   -1.1960 H         0      M_A    0.0000
     16 H          34.3518  264.7119   -2.6009 H         0      M_A    0.0000
     17 H          33.1347  265.6062   -3.5069 H         0      M_A    0.0000
     18 H          32.8272  263.1501   -3.8130 H         0      M_A    0.0000
     19 H          32.2134  261.7273   -1.8665 H         0      M_A    0.0000
     20 H          33.8008  262.4389   -1.6260 H         0      M_A    0.0000
     21 H          32.4498  262.6554    0.4519 H         0      M_A    0.0000
     22 H          34.1258  264.4094   -0.1054 H         0      M_A    0.0000
     23 H          32.7703  265.1071    0.7685 H         0      M_A    0.0000
     24 H          30.4891  264.2464    0.4604 H         0      M_A    0.0000
     25 H          29.4270  264.8302   -1.7702 H         0      M_A    0.0000
     26 H          30.8065  264.6150   -3.8303 H         0      M_A    0.0000
     27 H          30.4232  263.0300   -3.1797 H         0      M_A    0.0000
     28 H          31.1544  266.5607   -2.3803 H         0      M_A    0.0000
     29 H          30.1971  266.3194    0.3203 H         0      M_A    0.0000
     30 H          30.2812  269.4315   -0.5762 H         0      M_A    0.0000
     31 H          31.5493  268.9390   -1.7256 H         0      M_A    0.0000
     32 C          32.2531  270.3199   -0.1718 C.3       1      M_B    0.0000
     33 C          33.5655  270.4075   -0.9408 C.3       1      M_B    0.0000
     34 O          34.4184  271.3448   -0.2853 O.3       1      M_B    0.0000
     35 H          31.7037  271.2603   -0.2931 H         1      M_B    0.0000
     36 H          32.4511  270.1857    0.8978 H         1      M_B    0.0000
     37 H          34.0593  269.4285   -1.0024 H         1      M_B    0.0000
     38 H          33.3404  270.7537   -1.9594 H         1      M_B    0.0000
     39 C          34.0528  272.6679   -0.6146 C.3       2      M_B    0.0000
     40 C          35.2555  273.5504   -0.9244 C.3       2      M_B    0.0000
     41 O          35.3856  274.5259    0.1087 O.3       2      M_B    0.0000
     42 H          33.3978  272.6344   -1.4925 H         2      M_B    0.0000
     43 H          33.4763  273.0937    0.2146 H         2      M_B    0.0000
     44 H          36.1772  272.9581   -1.0009 H         2      M_B    0.0000
     45 H          35.0741  274.0466   -1.8882 H         2      M_B    0.0000
     46 C          36.6182  275.2056    0.0013 C.3       3      M_B    0.0000
     47 C          36.6018  276.5650    0.6892 C.3       3      M_B    0.0000
     48 O          37.7408  277.3091    0.2593 O.3       3      M_B    0.0000
     49 H          37.3946  274.5822    0.4589 H         3      M_B    0.0000
     50 H          36.8677  275.3227   -1.0594 H         3      M_B    0.0000
     51 H          35.6818  277.1188    0.4590 H         3      M_B    0.0000
     52 H          36.6507  276.3977    1.7744 H         3      M_B    0.0000
     53 C          37.5829  278.6800    0.5567 C.3       4      M_B    0.0000
     54 C          38.5398  279.5664   -0.2307 C.3       4      M_B    0.0000
     55 O          39.4631  280.1639    0.6785 O.3       4      M_B    0.0000
     56 H          36.5522  278.9661    0.3188 H         4      M_B    0.0000
     57 H          37.7298  278.8290    1.6325 H         4      M_B    0.0000
     58 H          39.0818  278.9915   -0.9936 H         4      M_B    0.0000
     59 H          37.9480  280.3459   -0.7307 H         4      M_B    0.0000
     60 C          38.8213  281.1375    1.4739 C.3       5      M_B    0.0000
     61 C          39.1990  282.5602    1.0806 C.3       5      M_B    0.0000
     62 O          40.4149  282.9098    1.7402 O.3       5      M_B    0.0000
     63 H          37.7383  281.0112    1.3636 H         5      M_B    0.0000
     64 H          39.0718  280.9579    2.5257 H         5      M_B    0.0000
     65 H          39.3198  282.6561   -0.0067 H         5      M_B    0.0000
     66 H          38.3900  283.2292    1.4060 H         5      M_B    0.0000
     67 C          41.5193  282.7303    0.8796 C.3       6      M_B    0.0000
     68 C          42.5420  283.8540    0.9933 C.3       6      M_B    0.0000
     69 O          43.0067  284.1839   -0.3148 O.3       6      M_B    0.0000
     70 H          42.0019  281.7800    1.1345 H         6      M_B    0.0000
     71 H          41.1568  282.6534   -0.1518 H         6      M_B    0.0000
     72 H          42.1093  284.7417    1.4739 H         6      M_B    0.0000
     73 H          43.3780  283.4922    1.6082 H         6      M_B    0.0000
     74 C          43.7639  285.3750   -0.2901 C.3       7      M_B    0.0000
     75 C          45.2142  285.1584   -0.7035 C.3       7      M_B    0.0000
     76 O          45.9508  286.3495   -0.4299 O.3       7      M_B    0.0000
     77 H          43.2990  286.0912   -0.9769 H         7      M_B    0.0000
     78 H          43.7190  285.8032    0.7177 H         7      M_B    0.0000
     79 H          45.6602  284.3091   -0.1688 H         7      M_B    0.0000
     80 H          45.2324  284.9454   -1.7816 H         7      M_B    0.0000
     81 C          45.1686  287.4932   -0.6994 C.3       8      M_B    0.0000
     82 C          46.0120  288.7393   -0.9384 C.3       8      M_B    0.0000
     83 O          45.9333  289.5736    0.2165 O.3       8      M_B    0.0000
     84 H          44.5646  287.2933   -1.5917 H         8      M_B    0.0000
     85 H          44.4809  287.6582    0.1378 H         8      M_B    0.0000
     86 H          47.0591  288.4803   -1.1447 H         8      M_B    0.0000
     87 H          45.6006  289.2665   -1.8106 H         8      M_B    0.0000
     88 C          46.1939  290.9193   -0.1209 C.3       9      M_B    0.0000
     89 C          47.6516  291.1606   -0.4926 C.3       9      M_B    0.0000
     90 O          48.0858  292.3730    0.1216 O.3       9      M_B    0.0000
     91 H          45.5581  291.1889   -0.9718 H         9      M_B    0.0000
     92 H          45.9091  291.5582    0.7228 H         9      M_B    0.0000
     93 H          48.2898  290.3265   -0.1714 H         9      M_B    0.0000
     94 H          47.7132  291.2511   -1.5862 H         9      M_B    0.0000
     95 C          49.4862  292.5139    0.0137 C.3      10      M_B    0.0000
     96 C          49.9796  293.8716    0.4977 C.3      10      M_B    0.0000
     97 O          50.9633  294.3536   -0.4165 O.3      10      M_B    0.0000
     98 H          49.9573  291.7271    0.6136 H        10      M_B    0.0000
     99 H          49.7793  292.3565   -1.0306 H        10      M_B    0.0000
    100 H          49.1546  294.5922    0.5771 H        10      M_B    0.0000
    101 H          50.4266  293.7362    1.4927 H        10      M_B    0.0000
    102 C          51.6750  295.4376    0.1413 C.3      11      M_B    0.0000
    103 C          51.7052  296.6547   -0.7747 C.3      11      M_B    0.0000
    104 O          52.7545  297.5224   -0.3482 O.3      11      M_B    0.0000
    105 H          51.1946  295.7131    1.0869 H        11      M_B    0.0000
    106 H          52.6963  295.1118    0.3695 H        11      M_B    0.0000
    107 H          51.8603  296.3634   -1.8222 H        11      M_B    0.0000
    108 H          50.7369  297.1677   -0.6908 H        11      M_B    0.0000
    109 C          53.2839  298.2410   -1.4418 C.3      12      M_B    0.0000
    110 C          54.6612  298.8240   -1.1510 C.3      12      M_B    0.0000
    111 O          54.5285  300.2292   -0.9422 O.3      12      M_B    0.0000
    112 H          53.3568  297.5597   -2.2970 H        12      M_B    0.0000
    113 H          52.5853  299.0410   -1.7125 H        12      M_B    0.0000
    114 H          55.1166  298.3539   -0.2691 H        12      M_B    0.0000
    115 H          55.3024  298.6333   -2.0231 H        12      M_B    0.0000
    116 C          55.7952  300.8514   -0.9121 C.3      13      M_B    0.0000
    117 C          56.0770  301.5473    0.4137 C.3      13      M_B    0.0000
    118 O          57.1140  302.5071    0.2153 O.3      13      M_B    0.0000
    119 H          56.5585  300.0839   -1.0828 H        13      M_B    0.0000
    120 H          55.8568  301.5711   -1.7363 H        13      M_B    0.0000
    121 H          55.1776  302.0408    0.8057 H        13      M_B    0.0000
    122 H          56.4042  300.7853    1.1350 H        13      M_B    0.0000
    123 C          56.9530  303.6040    1.0891 C.3      14      M_B    0.0000
    124 C          57.6451  304.8641    0.5846 C.3      14      M_B    0.0000
    125 O          58.9362  304.9491    1.1860 O.3      14      M_B    0.0000
    126 H          55.8806  303.8030    1.1959 H        14      M_B    0.0000
    127 H          57.3407  303.3307    2.0771 H        14      M_B    0.0000
    128 H          57.7394  304.8581   -0.5096 H        14      M_B    0.0000
    129 H          57.0354  305.7291    0.8813 H        14      M_B    0.0000
    130 C          59.6793  306.0103    0.6256 C.3      15      M_B    0.0000
    131 C          61.0551  305.5720    0.1392 C.3      15      M_B    0.0000
    132 O          61.8931  306.7225    0.0395 O.3      15      M_B    0.0000
    133 H          59.1132  306.4163   -0.2203 H        15      M_B    0.0000
    134 H          59.7793  306.8066    1.3719 H        15      M_B    0.0000
    135 H          61.5048  304.8369    0.8200 H        15      M_B    0.0000
    136 H          60.9345  305.1089   -0.8502 H        15      M_B    0.0000
    137 C          61.5204  307.6958    0.9916 C.3      16      M_B    0.0000
    138 C          62.0619  309.0807    0.6595 C.3      16      M_B    0.0000
    139 O          63.3464  309.2267    1.2632 O.3      16      M_B    0.0000
    140 H          60.4260  307.7386    1.0279 H        16      M_B    0.0000
    141 H          61.8740  307.3796    1.9795 H        16      M_B    0.0000
    142 H          62.1369  309.2313   -0.4258 H        16      M_B    0.0000
    143 H          61.3668  309.8256    1.0718 H        16      M_B    0.0000
    144 C          63.8260  310.5448    1.1045 C.3      17      M_B    0.0000
    145 C          64.8706  310.6615    0.0016 C.3      17      M_B    0.0000
    146 O          66.0337  311.2905    0.5377 O.3      17      M_B    0.0000
    147 H          62.9757  311.1923    0.8621 H        17      M_B    0.0000
    148 H          64.2441  310.8876    2.0577 H        17      M_B    0.0000
    149 H          65.1309  309.6767   -0.4090 H        17      M_B    0.0000
    150 H          64.4478  311.2788   -0.8035 H        17      M_B    0.0000
    151 C          67.1903  310.8780   -0.1585 C.3      18      M_B    0.0000
    152 C          68.4536  311.5700    0.3382 C.3      18      M_B    0.0000
    153 O          69.0381  312.2892   -0.7467 O.3      18      M_B    0.0000
    154 H          67.3008  309.7954   -0.0292 H        18      M_B    0.0000
    155 H          67.0493  311.0727   -1.2278 H        18      M_B    0.0000
    156 H          68.2348  312.2543    1.1687 H        18      M_B    0.0000
    157 H          69.1486  310.7958    0.6927 H        18      M_B    0.0000
    158 C          68.3310  313.4862   -0.9910 C.3      19      M_B    0.0000
    159 C          69.2524  314.6831   -1.1906 C.3      19      M_B    0.0000
    160 O          69.6069  315.2060    0.0888 O.3      19      M_B    0.0000
    161 H          67.7235  313.3479   -1.8925 H        19      M_B    0.0000
    162 H          67.6476  313.6718   -0.1545 H        19      M_B    0.0000
    163 H          70.1573  314.4031   -1.7465 H        19      M_B    0.0000
    164 H          68.7047  315.4416   -1.7672 H        19      M_B    0.0000
    165 C          70.9625  314.9401    0.3788 C.3      20      M_B    0.0000
    166 C          71.8222  316.1980    0.3757 C.3      20      M_B    0.0000
    167 O          73.1820  315.8224    0.1625 O.3      20      M_B    0.0000
    168 H          71.0162  314.4722    1.3683 H        20      M_B    0.0000
    169 H          71.3469  314.2189   -0.3515 H        20      M_B    0.0000
    170 H          71.4994  316.9013   -0.4036 H        20      M_B    0.0000
    171 H          71.7166  316.6845    1.3556 H        20      M_B    0.0000
    172 C          73.6336  314.9737    1.1961 C.3      21      M_B    0.0000
    173 C          75.1369  315.0724    1.4234 C.3      21      M_B    0.0000
    174 O          75.7838  314.0623    0.6508 O.3      21      M_B    0.0000
    175 H          73.1130  315.2509    2.1197 H        21      M_B    0.0000
    176 H          73.3558  313.9414    0.9546 H        21      M_B    0.0000
    177 H          75.5197  316.0631    1.1434 H        21      M_B    0.0000
    178 H          75.3308  314.9086    2.4927 H        21      M_B    0.0000
    179 C          77.1750  314.2939    0.5906 C.3      22      M_B    0.0000
    180 C          77.5165  315.7077    0.1370 C.3      22      M_B    0.0000
    181 O          78.9039  315.7601   -0.1921 O.3      22      M_B    0.0000
    182 H          77.5939  314.1273    1.5894 H        22      M_B    0.0000
    183 H          77.6279  313.5608   -0.0866 H        22      M_B    0.0000
    184 H          76.9126  316.0066   -0.7301 H        22      M_B    0.0000
    185 H          77.3023  316.3930    0.9692 H        22      M_B    0.0000
    186 C          79.3438  317.0979   -0.2898 C.3      23      M_B    0.0000
    187 C          80.7822  317.2095   -0.7796 C.3      23      M_B    0.0000
    188 O          81.6564  317.1231    0.3447 O.3      23      M_B    0.0000
    189 H          78.6855  317.6252   -0.9895 H        23      M_B    0.0000
    190 H          79.2407  317.5779    0.6900 H        23      M_B    0.0000
    191 H          81.0209  316.4189   -1.5035 H        23      M_B    0.0000
    192 H          80.8992  318.1853   -1.2716 H        23      M_B    0.0000
    193 C          82.7582  316.2886    0.0577 C.3      24      M_B    0.0000
    194 C          83.7309  316.1770    1.2250 C.3      24      M_B    0.0000
    195 O          84.9543  315.6176    0.7492 O.3      24      M_B    0.0000
    196 H          82.3778  315.2907   -0.1880 H        24      M_B    0.0000
    197 H          83.2749  316.6752   -0.8281 H        24      M_B    0.0000
    198 H          83.9188  317.1567    1.6844 H        24      M_B    0.0000
    199 H          83.2833  315.5139    1.9786 H        24      M_B    0.0000
    200 C          85.7539  315.1770    1.8259 C.3      25      M_B    0.0000
    201 C          87.2453  315.3042    1.5411 C.3      25      M_B    0.0000
    202 O          87.7564  314.0179    1.1948 O.3      25      M_B    0.0000
    203 H          85.5051  315.7794    2.7069 H        25      M_B    0.0000
    204 H          85.5009  314.1351    2.0528 H        25      M_B    0.0000
    205 H          87.4381  316.0170    0.7281 H        25      M_B    0.0000
    206 H          87.7360  315.6694    2.4542 H        25      M_B    0.0000
    207 C          89.1408  313.9426    1.4600 C.3      26      M_B    0.0000
    208 C          89.9919  314.3044    0.2492 C.3      26      M_B    0.0000
    209 O          91.2253  313.5914    0.3273 O.3      26      M_B    0.0000
    210 H          89.3712  314.6335    2.2788 H        26      M_B    0.0000
    211 H          89.3822  312.9296    1.8015 H        26      M_B    0.0000
    212 H          89.4759  314.0620   -0.6895 H        26      M_B    0.0000
    213 H          90.1818  315.3866    0.2780 H        26      M_B    0.0000
    214 C          92.0098  313.8231   -0.8231 C.3      27      M_B    0.0000
    215 C          93.0908  312.7676   -1.0199 C.3      27      M_B    0.0000
    216 O          94.3362  313.2987   -0.5697 O.3      27      M_B    0.0000
    217 H          91.3470  313.8237   -1.6959 H        27      M_B    0.0000
    218 H          92.4633  314.8180   -0.7490 H        27      M_B    0.0000
    219 H          92.8546  311.8458   -0.4716 H        27      M_B    0.0000
    220 H          93.1480  312.5351   -2.0926 H        27      M_B    0.0000
    221 C          95.4100  312.4940   -1.0082 C.3      28      M_B    0.0000
    222 C          95.2022  311.0168   -0.6985 C.3      28      M_B    0.0000
    223 O          96.4553  310.4475   -0.3222 O.3      28      M_B    0.0000
    224 H          95.5140  312.6215   -2.0916 H        28      M_B    0.0000
    225 H          96.3348  312.8509   -0.5409 H        28      M_B    0.0000
    226 H          94.4682  310.8759    0.1061 H        28      M_B    0.0000
    227 H          94.8264  310.5281   -1.6084 H        28      M_B    0.0000
    228 C          97.0583  309.7972   -1.4204 C.3      29      M_B    0.0000
    229 C          97.7465  308.4958   -1.0275 C.3      29      M_B    0.0000
    230 O          99.1410  308.6135   -1.3061 O.3      29      M_B    0.0000
    231 H          96.2798  309.5811   -2.1607 H        29      M_B    0.0000
    232 H          97.7791  310.4796   -1.8850 H        29      M_B    0.0000
    233 H          97.5932  308.2672    0.0357 H        29      M_B    0.0000
    234 H          97.3109  307.6856   -1.6289 H        29      M_B    0.0000
    235 C          99.7635  307.3468   -1.2826 C.3      30      M_B    0.0000
    236 C          99.3894  306.5306   -0.0516 C.3      30      M_B    0.0000
    237 O          99.8940  305.2054   -0.2106 O.3      30      M_B    0.0000
    238 H          99.4596  306.7986   -2.1815 H        30      M_B    0.0000
    239 H         100.8498  307.4843   -1.3281 H        30      M_B    0.0000
    240 H          99.7947  306.9801    0.8648 H        30      M_B    0.0000
    241 H          98.2930  306.5082    0.0214 H        30      M_B    0.0000
    242 C          98.8925  304.2523    0.0742 C.3      31      M_B    0.0000
    243 C          99.4657  302.9101    0.5118 C.3      31      M_B    0.0000
    244 O          98.8540  301.8778   -0.2603 O.3      31      M_B    0.0000
    245 H          98.2590  304.6493    0.8754 H        31      M_B    0.0000
    246 H          98.2635  304.1222   -0.8138 H        31      M_B    0.0000
    247 H         100.5560  302.8798    0.3838 H        31      M_B    0.0000
    248 H          99.2314  302.7711    1.5765 H        31      M_B    0.0000
    249 C          98.6764  300.7122    0.5161 C.3      32      M_B    0.0000
    250 C          99.4728  299.5262   -0.0135 C.3      32      M_B    0.0000
    251 O          98.7141  298.3359    0.1949 O.3      32      M_B    0.0000
    252 H          98.9978  300.9304    1.5408 H        32      M_B    0.0000
    253 H          97.6090  300.4659    0.5474 H        32      M_B    0.0000
    254 H          99.7033  299.6434   -1.0808 H        32      M_B    0.0000
    255 H         100.4165  299.4725    0.5474 H        32      M_B    0.0000
    256 C          99.5664  297.2330    0.4177 C.3      33      M_B    0.0000
    257 C          99.1231  295.9856   -0.3365 C.3      33      M_B    0.0000
    258 O          98.9312  294.9277    0.6015 O.3      33      M_B    0.0000
    259 H         100.5759  297.5083    0.0920 H        33      M_B    0.0000
    260 H          99.6082  297.0283    1.4935 H        33      M_B    0.0000
    261 H          98.1954  296.1649   -0.8963 H        33      M_B    0.0000
    262 H          99.9175  295.7173   -1.0471 H        33      M_B    0.0000
    263 C          98.7569  293.6953   -0.0644 C.3      34      M_B    0.0000
    264 C          97.7570  292.7844    0.6370 C.3      34      M_B    0.0000
    265 O          97.9955  291.4395    0.2243 O.3      34      M_B    0.0000
    266 H          98.4017  293.9016   -1.0803 H        34      M_B    0.0000
    267 H          99.7289  293.1957   -0.1467 H        34      M_B    0.0000
    268 H          97.8414  292.8634    1.7291 H        34      M_B    0.0000
    269 H          96.7460  293.0948    0.3379 H        34      M_B    0.0000
    270 C          96.8993  290.6139    0.5550 C.3      35      M_B    0.0000
    271 C          97.3229  289.2048    0.9505 C.3      35      M_B    0.0000
    272 O          96.9891  288.3117   -0.1110 O.3      35      M_B    0.0000
    273 H          96.3631  291.0747    1.3922 H        35      M_B    0.0000
    274 H          96.2134  290.5757   -0.2989 H        35      M_B    0.0000
    275 H          98.3999  289.1546    1.1598 H        35      M_B    0.0000
    276 H          96.7733  288.9273    1.8610 H        35      M_B    0.0000
    277 C          97.4361  287.0041    0.1773 C.3      36      M_B    0.0000
    278 C          97.6132  286.1540   -1.0746 C.3      36      M_B    0.0000
    279 O          97.7136  284.7845   -0.6873 O.3      36      M_B    0.0000
    280 H          98.3970  287.0774    0.6990 H        36      M_B    0.0000
    281 H          96.7228  286.5273    0.8591 H        36      M_B    0.0000
    282 H          96.7744  286.2875   -1.7709 H        36      M_B    0.0000
    283 H          98.5396  286.4717   -1.5734 H        36      M_B    0.0000
    284 C          97.2568  284.6050    0.6362 C.3      37      M_B    0.0000
    285 C          97.7925  283.3298    1.2752 C.3      37      M_B    0.0000
    286 O          96.8890  282.2621    0.9930 O.3      37      M_B    0.0000
    287 H          97.5808  285.4667    1.2307 H        37      M_B    0.0000
    288 H          96.1609  284.5946    0.6351 H        37      M_B    0.0000
    289 H          98.7946  283.0841    0.8989 H        37      M_B    0.0000
    290 H          97.8533  283.4927    2.3604 H        37      M_B    0.0000
    291 C          97.5723  281.0276    0.9510 C.3      38      M_B    0.0000
    292 C          97.3266  280.2634   -0.3440 C.3      38      M_B    0.0000
    293 O          97.5371  278.8731   -0.1018 O.3      38      M_B    0.0000
    294 H          98.6454  281.2260    1.0516 H        38      M_B    0.0000
    295 H          97.2639  280.4218    1.8107 H        38      M_B    0.0000
    296 H          96.3083  280.4299   -0.7199 H        38      M_B    0.0000
    297 H          98.0433  280.6262   -1.0942 H        38      M_B    0.0000
    298 C          96.8483  278.4584    1.0584 C.3      39      M_B    0.0000
    299 C          97.3009  277.0903    1.5533 C.3      39      M_B    0.0000
    300 O          96.5054  276.0888    0.9208 O.3      39      M_B    0.0000
    301 H          97.0247  279.2001    1.8455 H        39      M_B    0.0000
    302 H          95.7729  278.4463    0.8475 H        39      M_B    0.0000
    303 H          98.3639  276.9182    1.3376 H        39      M_B    0.0000
    304 H          97.1517  277.0559    2.6417 H        39      M_B    0.0000
    305 C          97.3039  274.9953    0.5216 C.3      40      M_B    0.0000
    306 C          96.4807  273.8322   -0.0178 C.3      40      M_B    0.0000
    307 O          97.2728  272.6467    0.0371 O.3      40      M_B    0.0000
    308 H          97.9915  275.3396   -0.2591 H        40      M_B    0.0000
    309 H          97.9075  274.6662    1.3751 H        40      M_B    0.0000
    310 H          95.5566  273.6944    0.5594 H        40      M_B    0.0000
    311 H          96.2151  274.0580   -1.0602 H        40      M_B    0.0000
    312 C          96.4592  271.5116    0.2424 C.3      41      M_B    0.0000
    313 C          97.2455  270.3084    0.7478 C.3      41      M_B    0.0000
    314 O          96.9939  269.2014   -0.1166 O.3      41      M_B    0.0000
    315 H          95.6888  271.7702    0.9776 H        41      M_B    0.0000
    316 H          95.9526  271.2633   -0.6972 H        41      M_B    0.0000
    317 H          98.3225  270.5205    0.7835 H        41      M_B    0.0000
    318 H          96.8976  270.0772    1.7643 H        41      M_B    0.0000
    319 C          97.3654  267.9890    0.5036 C.3      42      M_B    0.0000
    320 C          98.4840  267.2679   -0.2381 C.3      42      M_B    0.0000
    321 O          98.3698  265.8676    0.0110 O.3      42      M_B    0.0000
    322 H          97.6986  268.2134    1.5232 H        42      M_B    0.0000
    323 H          96.4834  267.3427    0.5764 H        42      M_B    0.0000
    324 H          98.4386  267.4628   -1.3180 H        42      M_B    0.0000
    325 H          99.4434  267.6405    0.1476 H        42      M_B    0.0000
    326 C          99.5989  265.2160   -0.2282 C.3      43      M_B    0.0000
    327 C          99.4197  263.8062   -0.7775 C.3      43      M_B    0.0000
    328 O          99.6939  262.8708    0.2646 O.3      43      M_B    0.0000
    329 H         100.1682  265.8119   -0.9505 H        43      M_B    0.0000
    330 H         100.1728  265.1870    0.7050 H        43      M_B    0.0000
    331 H          98.4026  263.6530   -1.1625 H        43      M_B    0.0000
    332 H         100.1334  263.6690   -1.6019 H        43      M_B    0.0000
    333 C          98.9929  261.6645    0.0500 C.3      44      M_B    0.0000
    334 C          99.7080  260.4560    0.6412 C.3      44      M_B    0.0000
    335 O          99.2770  259.2853   -0.0513 O.3      44      M_B    0.0000
    336 H          98.0033  261.7561    0.5116 H        44      M_B    0.0000
    337 H          98.8461  261.5261   -1.0272 H        44      M_B    0.0000
    338 H         100.7986  260.5589    0.5637 H        44      M_B    0.0000
    339 H          99.4349  260.3853    1.7035 H        44      M_B    0.0000
    340 C         100.0000  259.1210   -1.2525 C.3      45      M_B    0.0000
    341 C          99.9057  257.7047   -1.8064 C.3      45      M_B    0.0000
    342 O         100.9293  256.9105   -1.2084 O.3      45      M_B    0.0000
    343 H          99.5990  259.8223   -1.9930 H        45      M_B    0.0000
    344 H         101.0481  259.3875   -1.0752 H        45      M_B    0.0000
    345 H          98.9208  257.2617   -1.6067 H        45      M_B    0.0000
    346 H         100.0565  257.7540   -2.8939 H        45      M_B    0.0000
    347 C         101.1525  255.7360   -1.9590 C.3      46      M_B    0.0000
    348 C         100.3033  254.5639   -1.4833 C.3      46      M_B    0.0000
    349 O         101.1660  253.5616   -0.9475 O.3      46      M_B    0.0000
    350 H         100.9143  255.9485   -3.0073 H        46      M_B    0.0000
    351 H         102.2162  255.4774   -1.9054 H        46      M_B    0.0000
    352 H          99.5757  254.8793   -0.7235 H        46      M_B    0.0000
    353 H          99.7579  254.1651   -2.3501 H        46      M_B    0.0000
    354 C         100.5078  252.8221    0.0588 C.3      47      M_B    0.0000
    355 C         101.3009  251.5997    0.5040 C.3      47      M_B    0.0000
    356 O         100.6474  250.4283    0.0178 O.3      47      M_B    0.0000
    357 H         100.3506  253.4803    0.9208 H        47      M_B    0.0000
    358 H          99.5223  252.5178   -0.3116 H        47      M_B    0.0000
    359 H         102.3338  251.6359    0.1326 H        47      M_B    0.0000
    360 H         101.3213  251.5892    1.6028 H        47      M_B    0.0000
    361 C         101.2209  249.2671    0.5793 C.3      48      M_B    0.0000
    362 C         102.7216  249.1743    0.3327 C.3      48      M_B    0.0000
    363 O         103.0675  247.8056    0.1257 O.3      48      M_B    0.0000
    364 H         101.0358  249.2810    1.6594 H        48      M_B    0.0000
    365 H         100.7158  248.3865    0.1664 H        48      M_B    0.0000
    366 H         103.0220  249.7740   -0.5369 H        48      M_B    0.0000
    367 H         103.2371  249.5610    1.2230 H        48      M_B    0.0000
    368 C         104.1020  247.4139    1.0026 C.3      49      M_B    0.0000
    369 C         104.9982  246.3340    0.4093 C.3      49      M_B    0.0000
    370 O         104.7529  245.1076    1.0960 O.3      49      M_B    0.0000
    371 H         104.7094  248.2966    1.2325 H        49      M_B    0.0000
    372 H         103.6579  247.0620    1.9407 H        49      M_B    0.0000
    373 H         104.8134  246.2067   -0.6658 H        49      M_B    0.0000
    374 H         106.0433  246.6421    0.5536 H        49      M_B    0.0000
    375 C         105.7364  244.1483    0.7717 C.3      50      M_B    0.0000
    376 C         105.8948  243.9536   -0.7311 C.3      50      M_B    0.0000
    377 O         106.5503  242.7080   -0.9646 O.3      50      M_B    0.0000
    378 H         106.6920  244.4811    1.1923 H        50      M_B    0.0000
    379 H         105.4757  243.1971    1.2497 H        50      M_B    0.0000
    380 H         104.9223  243.9685   -1.2412 H        50      M_B    0.0000
    381 H         106.5088  244.7790   -1.1181 H        50      M_B    0.0000
    382 C         106.9457  242.1157    0.2542 C.3      51      M_B    0.0000
    383 C         108.3255  241.4742    0.1757 C.3      51      M_B    0.0000
    384 O         108.2015  240.0842    0.4726 O.3      51      M_B    0.0000
    385 H         106.9559  242.8934    1.0262 H        51      M_B    0.0000
    386 H         106.1985  241.3684    0.5446 H        51      M_B    0.0000
    387 H         108.7731  241.6083   -0.8182 H        51      M_B    0.0000
    388 H         108.9698  241.9610    0.9213 H        51      M_B    0.0000
    389 C         109.3473  239.6140    1.1498 C.3      52      M_B    0.0000
    390 C         110.6437  240.1420    0.5484 C.3      52      M_B    0.0000
    391 O         111.5155  239.0399    0.3008 O.3      52      M_B    0.0000
    392 H         109.2822  239.9329    2.1963 H        52      M_B    0.0000
    393 H         109.3436  238.5182    1.1351 H        52      M_B    0.0000
    394 H         110.4576  240.6914   -0.3842 H        52      M_B    0.0000
    395 H         111.1021  240.8267    1.2757 H        52      M_B    0.0000
    396 C         111.7183  238.2891    1.4789 C.3      53      M_B    0.0000
    397 C         113.0957  237.6401    1.5326 C.3      53      M_B    0.0000
    398 O         112.9899  236.3015    1.0499 O.3      53      M_B    0.0000
    399 H         111.6053  238.9608    2.3374 H        53      M_B    0.0000
    400 H         110.9375  237.5234    1.5505 H        53      M_B    0.0000
    401 H         113.8255  238.1999    0.9325 H        53      M_B    0.0000
    402 H         113.4291  237.6359    2.5798 H        53      M_B    0.0000
    403 C         114.0571  235.9998    0.1765 C.3      54      M_B    0.0000
    404 C         115.1951  235.2627    0.8714 C.3      54      M_B    0.0000
    405 O         116.4104  235.5379    0.1763 O.3      54      M_B    0.0000
    406 H         113.6692  235.3750   -0.6360 H        54      M_B    0.0000
    407 H         114.4266  236.9312   -0.2674 H        54      M_B    0.0000
    408 H         115.2858  235.5669    1.9228 H        54      M_B    0.0000
    409 H         114.9765  234.1863    0.8332 H        54      M_B    0.0000
    410 C         117.5249  235.3289    1.0171 C.3      55      M_B    0.0000
    411 C         118.8436  235.6936    0.3468 C.3      55      M_B    0.0000
    412 O         119.8205  234.7139    0.6955 O.3      55      M_B    0.0000
    413 H         117.3975  235.9442    1.9149 H        55      M_B    0.0000
    414 H         117.5398  234.2794    1.3324 H        55      M_B    0.0000
    415 H         118.7364  235.7462   -0.7450 H        55      M_B    0.0000
    416 H         119.1527  236.6806    0.7188 H        55      M_B    0.0000
    417 C         120.9445  234.8053   -0.1535 C.3      56      M_B    0.0000
    418 C         122.2505  234.9634    0.6150 C.3      56      M_B    0.0000
    419 O         123.1869  235.6539   -0.2110 O.3      56      M_B    0.0000
    420 H         120.9930  233.8924   -0.7579 H        56      M_B    0.0000
    421 H         120.8049  235.6501   -0.8375 H        56      M_B    0.0000
    422 H         122.0987  235.5139    1.5531 H        56      M_B    0.0000
    423 H         122.6291  233.9593    0.8526 H        56      M_B    0.0000
    424 C         124.5049  235.2325    0.0682 C.3      57      M_B    0.0000
    425 C         125.4260  236.3886    0.4375 C.3      57      M_B    0.0000
    426 O         126.6599  236.2318   -0.2616 O.3      57      M_B    0.0000
    427 H         124.4687  234.5230    0.9027 H        57      M_B    0.0000
    428 H         124.8996  234.6998   -0.8045 H        57      M_B    0.0000
    429 H         124.9724  237.3571    0.1877 H        57      M_B    0.0000
    430 H         125.6017  236.3505    1.5217 H        57      M_B    0.0000
    431 C         127.5226  237.3186   -0.0018 C.3      58      M_B    0.0000
    432 C         128.8138  237.2498   -0.8077 C.3      58      M_B    0.0000
    433 O         129.7438  238.1844   -0.2623 O.3      58      M_B    0.0000
    434 H         126.9929  238.2446   -0.2527 H        58      M_B    0.0000
    435 H         127.7481  237.3442    1.0704 H        58      M_B    0.0000
    436 H         129.2426  236.2389   -0.7910 H        58      M_B    0.0000
    437 H         128.5801  237.5168   -1.8479 H        58      M_B    0.0000
    438 C         131.0688  237.7295   -0.4358 C.3      59      M_B    0.0000
    439 C         132.0864  238.5854    0.3080 C.3      59      M_B    0.0000
    440 O         132.7267  239.4517   -0.6276 O.3      59      M_B    0.0000
    441 H         131.1290  236.6995   -0.0663 H        59      M_B    0.0000
    442 H         131.3010  237.7129   -1.5068 H        59      M_B    0.0000
    443 H         131.6090  239.1756    1.1016 H        59      M_B    0.0000
    444 H         132.8269  237.9136    0.7647 H        59      M_B    0.0000
    445 C         133.3989  238.7059   -1.6198 C.3      60      M_B    0.0000
    446 C         134.8975  238.9794   -1.6465 C.3      60      M_B    0.0000
    447 O         135.1324  240.1671   -2.4016 O.3      60      M_B    0.0000
    448 H         133.2329  237.6412   -1.4200 H        60      M_B    0.0000
    449 H         132.9564  238.9341   -2.5961 H        60      M_B    0.0000
    450 H         135.3018  239.0926   -0.6317 H        60      M_B    0.0000
    451 H         135.3908  238.1242   -2.1295 H        60      M_B    0.0000
    452 C         134.8024  241.3128   -1.6459 C.3      61      M_B    0.0000
    453 C         135.9952  242.2346   -1.4244 C.3      61      M_B    0.0000
    454 O         135.8124  242.9316   -0.1929 O.3      61      M_B    0.0000
    455 H         134.0196  241.8625   -2.1804 H        61      M_B    0.0000
    456 H         134.3874  240.9951   -0.6826 H        61      M_B    0.0000
    457 H         136.9376  241.6711   -1.4015 H        61      M_B    0.0000
    458 H         136.0319  242.9496   -2.2583 H        61      M_B    0.0000
    459 C         137.0418  243.4372    0.2820 C.3      62      M_B    0.0000
    460 C         137.0909  244.9600    0.2811 C.3      62      M_B    0.0000
    461 O         138.4377  245.3742    0.0566 O.3      62      M_B    0.0000
    462 H         137.1892  243.0749    1.3057 H        62      M_B    0.0000
    463 H         137.8533  243.0333   -0.3339 H        62      M_B    0.0000
    464 H         136.4340  245.3811   -0.4917 H        62      M_B    0.0000
    465 H         136.7493  245.3119    1.2646 H        62      M_B    0.0000
    466 C         138.5035  246.7692   -0.1485 C.3      63      M_B    0.0000
    467 C         139.9006  247.2420   -0.5307 C.3      63      M_B    0.0000
    468 O         140.1877  248.4444    0.1819 O.3      63      M_B    0.0000
    469 H         137.8049  247.0312   -0.9512 H        63      M_B    0.0000
    470 H         138.1694  247.2782    0.7627 H        63      M_B    0.0000
    471 H         140.6574  246.4796   -0.3026 H        63      M_B    0.0000
    472 H         139.9100  247.4359   -1.6125 H        63      M_B    0.0000
    473 C         141.2578  249.1393   -0.4218 C.3      64      M_B    0.0000
    474 C         141.9049  250.1513    0.5156 C.3      64      M_B    0.0000
    475 O         142.2948  251.2945   -0.2440 O.3      64      M_B    0.0000
    476 H         142.0110  248.4064   -0.7324 H        64      M_B    0.0000
    477 H         140.8907  249.6419   -1.3239 H        64      M_B    0.0000
    478 H         141.2175  250.4496    1.3185 H        64      M_B    0.0000
    479 H         142.7901  249.6804    0.9657 H        64      M_B    0.0000
    480 C         142.1919  252.4688    0.5325 C.3      65      M_B    0.0000
    481 C         142.6136  253.7177   -0.2316 C.3      65      M_B    0.0000
    482 O         142.9065  254.7514    0.7073 O.3      65      M_B    0.0000
    483 H         141.1491  252.5791    0.8511 H        65      M_B    0.0000
    484 H         142.8047  252.3532    1.4337 H        65      M_B    0.0000
    485 H         143.4908  253.5233   -0.8631 H        65      M_B    0.0000
    486 H         141.7760  254.0217   -0.8751 H        65      M_B    0.0000
    487 C         143.6786  255.7685    0.1055 C.3      66      M_B    0.0000
    488 C         143.5928  257.0926    0.8542 C.3      66      M_B    0.0000
    489 O         143.9404  258.1479   -0.0410 O.3      66      M_B    0.0000
    490 H         144.7231  255.4377    0.0818 H        66      M_B    0.0000
    491 H         143.3474  255.8992   -0.9310 H        66      M_B    0.0000
    492 H         142.5854  257.2590    1.2588 H        66      M_B    0.0000
    493 H         144.3069  257.0583    1.6889 H        66      M_B    0.0000
    494 C         144.2048  259.3387    0.6695 C.3      67      M_B    0.0000
    495 C         143.8341  260.5884   -0.1192 C.3      67      M_B    0.0000
    496 O         144.6703  261.6631    0.3068 O.3      67      M_B    0.0000
    497 H         143.6268  259.3182    1.6003 H        67      M_B    0.0000
    498 H         145.2671  259.3634    0.9379 H        67      M_B    0.0000
    499 H         143.9482  260.4283   -1.1996 H        67      M_B    0.0000
    500 H         142.7820  260.8250    0.0932 H        67      M_B    0.0000
    501 C         144.7534  262.6574   -0.6918 C.3      68      M_B    0.0000
    502 C         145.3804  263.9498   -0.1838 C.3      68      M_B    0.0000
    503 O         144.5906  265.0495   -0.6342 O.3      68      M_B    0.0000
    504 H         145.3594  262.2655   -1.5164 H        68      M_B    0.0000
    505 H         143.7481  262.8538   -1.0816 H        68      M_B    0.0000
    506 H         145.4470  263.9584    0.9124 H        68      M_B    0.0000
    507 H         146.3953  264.0218   -0.5995 H        68      M_B    0.0000
    508 C         145.2950  266.2638   -0.4866 C.3      69      M_B    0.0000
    509 C         144.6187  267.2212    0.4868 C.3      69      M_B    0.0000
    510 O         145.1674  268.5252    0.3016 O.3      69      M_B    0.0000
    511 H         146.3022  266.0338   -0.1210 H        69      M_B    0.0000
    512 H         145.3978  266.7363   -1.4701 H        69      M_B    0.0000
    513 H         143.5314  267.2452    0.3340 H        69      M_B    0.0000
    514 H         144.8239  266.8694    1.5077 H        69      M_B    0.0000
    515 O         146.1251  270.9111   -2.2823 O.2      70      M_C    0.0000
    516 C         146.5316  270.8575   -1.1250 C.2      70      M_C    0.0000
    517 C         147.0942  269.5706   -0.5381 C.3      70      M_C    0.0000
    518 O         146.1693  268.5089   -0.6926 O.3      70      M_C    0.0000
    519 N         146.5709  271.9413   -0.2699 N.3      70      M_C    0.0000
    520 C         147.3640  273.1538   -0.4860 C.3      70      M_C    0.0000
    521 C         147.7974  273.3038   -1.9663 C.3      70      M_C    0.0000
    522 C         148.6660  274.5600   -2.1496 C.3      70      M_C    0.0000
    523 C         147.8584  275.7977   -1.7179 C.3      70      M_C    0.0000
    524 C         147.4621  275.6842   -0.2306 C.3      70      M_C    0.0000
    525 C         146.5894  274.4223   -0.0556 C.3      70      M_C    0.0000
    526 C         148.7583  275.5932    0.6076 C.3      70      M_C    0.0000
    527 C         149.5311  274.3146    0.2064 C.3      70      M_C    0.0000
    528 C         149.9266  274.4348   -1.2784 C.3      70      M_C    0.0000
    529 C         148.6530  273.0572    0.3723 C.3      70      M_C    0.0000
    530 H         147.4018  269.7440    0.5019 H        70      M_C    0.0000
    531 H         147.9937  269.3068   -1.1060 H        70      M_C    0.0000
    532 H         145.8202  271.9929    0.4171 H        70      M_C    0.0000
    533 H         148.3529  272.4135   -2.2893 H        70      M_C    0.0000
    534 H         146.9272  273.3777   -2.6283 H        70      M_C    0.0000
    535 H         148.9544  274.6570   -3.2023 H        70      M_C    0.0000
    536 H         148.4525  276.7057   -1.8788 H        70      M_C    0.0000
    537 H         146.9592  275.8938   -2.3389 H        70      M_C    0.0000
    538 H         146.8805  276.5693    0.0559 H        70      M_C    0.0000
    539 H         145.6763  274.5386   -0.6525 H        70      M_C    0.0000
    540 H         146.2545  274.3263    0.9848 H        70      M_C    0.0000
    541 H         149.3849  276.4649    0.3719 H        70      M_C    0.0000
    542 H         150.4387  274.2067    0.8132 H        70      M_C    0.0000
    543 H         150.5080  273.5562   -1.5841 H        70      M_C    0.0000
    544 H         150.5727  275.3089   -1.4259 H        70      M_C    0.0000
    545 H         148.3945  272.9113    1.4290 H        70      M_C    0.0000
    546 H         149.2288  272.1674    0.0824 H        70      M_C    0.0000
    547 H         148.5664  275.6411    1.6795 H        70      M_C    0.0000
    548 H          30.1153  262.8152   -0.4556 H         0      M_A    0.0000
@<TRIPOS>BOND
     1     1     2      1
     2     1     6      1
     3     1    10      1
     4     1    15      1
     5     2     3      1
     6     2    16      1
     7     2    17      1
     8     3     4      1
     9     3     9      1
    10     3    18      1
    11     4     5      1
    12     4    19      1
    13     4    20      1
    14     5     6      1
    15     5     7      1
    16     5    21      1
    17     6    22      1
    18     6    23      1
    19     7     8      1
    20     7    24      1
    21     7   548      H
    22     8     9      1
    23     8    10      1
    24     8    25      1
    25     9    26      1
    26     9    27      1
    27    10    11      1
    28    10    28      1
    29    11    12      1
    30    11    29      1
    31    12    13      2
    32    12    14      1
    33    14    30      1
    34    14    31      1
    35    14    32      1
    36    32    33      1
    37    32    35      1
    38    32    36      1
    39    33    34      1
    40    33    37      1
    41    33    38      1
    42    34    39      1
    43    39    40      1
    44    39    42      1
    45    39    43      1
    46    40    41      1
    47    40    44      1
    48    40    45      1
    49    41    46      1
    50    46    47      1
    51    46    49      1
    52    46    50      1
    53    47    48      1
    54    47    51      1
    55    47    52      1
    56    48    53      1
    57    53    54      1
    58    53    56      1
    59    53    57      1
    60    54    55      1
    61    54    58      1
    62    54    59      1
    63    55    60      1
    64    60    61      1
    65    60    63      1
    66    60    64      1
    67    61    62      1
    68    61    65      1
    69    61    66      1
    70    62    67      1
    71    67    68      1
    72    67    70      1
    73    67    71      1
    74    68    69      1
    75    68    72      1
    76    68    73      1
    77    69    74      1
    78    74    75      1
    79    74    77      1
    80    74    78      1
    81    75    76      1
    82    75    79      1
    83    75    80      1
    84    76    81      1
    85    81    82      1
    86    81    84      1
    87    81    85      1
    88    82    83      1
    89    82    86      1
    90    82    87      1
    91    83    88      1
    92    88    89      1
    93    88    91      1
    94    88    92      1
    95    89    90      1
    96    89    93      1
    97    89    94      1
    98    90    95      1
    99    95    96      1
   100    95    98      1
   101    95    99      1
   102    96    97      1
   103    96   100      1
   104    96   101      1
   105    97   102      1
   106   102   103      1
   107   102   105      1
   108   102   106      1
   109   103   104      1
   110   103   107      1
   111   103   108      1
   112   104   109      1
   113   109   110      1
   114   109   112      1
   115   109   113      1
   116   110   111      1
   117   110   114      1
   118   110   115      1
   119   111   116      1
   120   116   117      1
   121   116   119      1
   122   116   120      1
   123   117   118      1
   124   117   121      1
   125   117   122      1
   126   118   123      1
   127   123   124      1
   128   123   126      1
   129   123   127      1
   130   124   125      1
   131   124   128      1
   132   124   129      1
   133   125   130      1
   134   130   131      1
   135   130   133      1
   136   130   134      1
   137   131   132      1
   138   131   135      1
   139   131   136      1
   140   132   137      1
   141   137   138      1
   142   137   140      1
   143   137   141      1
   144   138   139      1
   145   138   142      1
   146   138   143      1
   147   139   144      1
   148   144   145      1
   149   144   147      1
   150   144   148      1
   151   145   146      1
   152   145   149      1
   153   145   150      1
   154   146   151      1
   155   151   152      1
   156   151   154      1
   157   151   155      1
   158   152   153      1
   159   152   156      1
   160   152   157      1
   161   153   158      1
   162   158   159      1
   163   158   161      1
   164   158   162      1
   165   159   160      1
   166   159   163      1
   167   159   164      1
   168   160   165      1
   169   165   166      1
   170   165   168      1
   171   165   169      1
   172   166   167      1
   173   166   170      1
   174   166   171      1
   175   167   172      1
   176   172   173      1
   177   172   175      1
   178   172   176      1
   179   173   174      1
   180   173   177      1
   181   173   178      1
   182   174   179      1
   183   179   180      1
   184   179   182      1
   185   179   183      1
   186   180   181      1
   187   180   184      1
   188   180   185      1
   189   181   186      1
   190   186   187      1
   191   186   189      1
   192   186   190      1
   193   187   188      1
   194   187   191      1
   195   187   192      1
   196   188   193      1
   197   193   194      1
   198   193   196      1
   199   193   197      1
   200   194   195      1
   201   194   198      1
   202   194   199      1
   203   195   200      1
   204   200   201      1
   205   200   203      1
   206   200   204      1
   207   201   202      1
   208   201   205      1
   209   201   206      1
   210   202   207      1
   211   207   208      1
   212   207   210      1
   213   207   211      1
   214   208   209      1
   215   208   212      1
   216   208   213      1
   217   209   214      1
   218   214   215      1
   219   214   217      1
   220   214   218      1
   221   215   216      1
   222   215   219      1
   223   215   220      1
   224   216   221      1
   225   221   222      1
   226   221   224      1
   227   221   225      1
   228   222   223      1
   229   222   226      1
   230   222   227      1
   231   223   228      1
   232   228   229      1
   233   228   231      1
   234   228   232      1
   235   229   230      1
   236   229   233      1
   237   229   234      1
   238   230   235      1
   239   235   236      1
   240   235   238      1
   241   235   239      1
   242   236   237      1
   243   236   240      1
   244   236   241      1
   245   237   242      1
   246   242   243      1
   247   242   245      1
   248   242   246      1
   249   243   244      1
   250   243   247      1
   251   243   248      1
   252   244   249      1
   253   249   250      1
   254   249   252      1
   255   249   253      1
   256   250   251      1
   257   250   254      1
   258   250   255      1
   259   251   256      1
   260   256   257      1
   261   256   259      1
   262   256   260      1
   263   257   258      1
   264   257   261      1
   265   257   262      1
   266   258   263      1
   267   263   264      1
   268   263   266      1
   269   263   267      1
   270   264   265      1
   271   264   268      1
   272   264   269      1
   273   265   270      1
   274   270   271      1
   275   270   273      1
   276   270   274      1
   277   271   272      1
   278   271   275      1
   279   271   276      1
   280   272   277      1
   281   277   278      1
   282   277   280      1
   283   277   281      1
   284   278   279      1
   285   278   282      1
   286   278   283      1
   287   279   284      1
   288   284   285      1
   289   284   287      1
   290   284   288      1
   291   285   286      1
   292   285   289      1
   293   285   290      1
   294   286   291      1
   295   291   292      1
   296   291   294      1
   297   291   295      1
   298   292   293      1
   299   292   296      1
   300   292   297      1
   301   293   298      1
   302   298   299      1
   303   298   301      1
   304   298   302      1
   305   299   300      1
   306   299   303      1
   307   299   304      1
   308   300   305      1
   309   305   306      1
   310   305   308      1
   311   305   309      1
   312   306   307      1
   313   306   310      1
   314   306   311      1
   315   307   312      1
   316   312   313      1
   317   312   315      1
   318   312   316      1
   319   313   314      1
   320   313   317      1
   321   313   318      1
   322   314   319      1
   323   319   320      1
   324   319   322      1
   325   319   323      1
   326   320   321      1
   327   320   324      1
   328   320   325      1
   329   321   326      1
   330   326   327      1
   331   326   329      1
   332   326   330      1
   333   327   328      1
   334   327   331      1
   335   327   332      1
   336   328   333      1
   337   333   334      1
   338   333   336      1
   339   333   337      1
   340   334   335      1
   341   334   338      1
   342   334   339      1
   343   335   340      1
   344   340   341      1
   345   340   343      1
   346   340   344      1
   347   341   342      1
   348   341   345      1
   349   341   346      1
   350   342   347      1
   351   347   348      1
   352   347   350      1
   353   347   351      1
   354   348   349      1
   355   348   352      1
   356   348   353      1
   357   349   354      1
   358   354   355      1
   359   354   357      1
   360   354   358      1
   361   355   356      1
   362   355   359      1
   363   355   360      1
   364   356   361      1
   365   361   362      1
   366   361   364      1
   367   361   365      1
   368   362   363      1
   369   362   366      1
   370   362   367      1
   371   363   368      1
   372   368   369      1
   373   368   371      1
   374   368   372      1
   375   369   370      1
   376   369   373      1
   377   369   374      1
   378   370   375      1
   379   375   376      1
   380   375   378      1
   381   375   379      1
   382   376   377      1
   383   376   380      1
   384   376   381      1
   385   377   382      1
   386   382   383      1
   387   382   385      1
   388   382   386      1
   389   383   384      1
   390   383   387      1
   391   383   388      1
   392   384   389      1
   393   389   390      1
   394   389   392      1
   395   389   393      1
   396   390   391      1
   397   390   394      1
   398   390   395      1
   399   391   396      1
   400   396   397      1
   401   396   399      1
   402   396   400      1
   403   397   398      1
   404   397   401      1
   405   397   402      1
   406   398   403      1
   407   403   404      1
   408   403   406      1
   409   403   407      1
   410   404   405      1
   411   404   408      1
   412   404   409      1
   413   405   410      1
   414   410   411      1
   415   410   413      1
   416   410   414      1
   417   411   412      1
   418   411   415      1
   419   411   416      1
   420   412   417      1
   421   417   418      1
   422   417   420      1
   423   417   421      1
   424   418   419      1
   425   418   422      1
   426   418   423      1
   427   419   424      1
   428   424   425      1
   429   424   427      1
   430   424   428      1
   431   425   426      1
   432   425   429      1
   433   425   430      1
   434   426   431      1
   435   431   432      1
   436   431   434      1
   437   431   435      1
   438   432   433      1
   439   432   436      1
   440   432   437      1
   441   433   438      1
   442   438   439      1
   443   438   441      1
   444   438   442      1
   445   439   440      1
   446   439   443      1
   447   439   444      1
   448   440   445      1
   449   445   446      1
   450   445   448      1
   451   445   449      1
   452   446   447      1
   453   446   450      1
   454   446   451      1
   455   447   452      1
   456   452   453      1
   457   452   455      1
   458   452   456      1
   459   453   454      1
   460   453   457      1
   461   453   458      1
   462   454   459      1
   463   459   460      1
   464   459   462      1
   465   459   463      1
   466   460   461      1
   467   460   464      1
   468   460   465      1
   469   461   466      1
   470   466   467      1
   471   466   469      1
   472   466   470      1
   473   467   468      1
   474   467   471      1
   475   467   472      1
   476   468   473      1
   477   473   474      1
   478   473   476      1
   479   473   477      1
   480   474   475      1
   481   474   478      1
   482   474   479      1
   483   475   480      1
   484   480   481      1
   485   480   483      1
   486   480   484      1
   487   481   482      1
   488   481   485      1
   489   481   486      1
   490   482   487      1
   491   487   488      1
   492   487   490      1
   493   487   491      1
   494   488   489      1
   495   488   492      1
   496   488   493      1
   497   489   494      1
   498   494   495      1
   499   494   497      1
   500   494   498      1
   501   495   496      1
   502   495   499      1
   503   495   500      1
   504   496   501      1
   505   501   502      1
   506   501   504      1
   507   501   505      1
   508   502   503      1
   509   502   506      1
   510   502   507      1
   511   503   508      1
   512   508   509      1
   513   508   511      1
   514   508   512      1
   515   509   510      1
   516   509   513      1
   517   509   514      1
   518   510   518      1
   519   515   516      2
   520   516   517      1
   521   516   519      1
   522   517   518      1
   523   517   530      1
   524   517   531      1
   525   519   520      1
   526   519   532      1
   527   520   521      1
   528   520   525      1
   529   520   529      1
   530   521   522      1
   531   521   533      1
   532   521   534      1
   533   522   523      1
   534   522   528      1
   535   522   535      1
   536   523   524      1
   537   523   536      1
   538   523   537      1
   539   524   525      1
   540   524   526      1
   541   524   538      1
   542   525   539      1
   543   525   540      1
   544   526   527      1
   545   526   541      1
   546   526   547      H
   547   527   528      1
   548   527   529      1
   549   527   542      1
   550   528   543      1
   551   528   544      1
   552   529   545      1
   553   529   546      1
