###
### Created by PolyChef-cpp17 on Thu Mar 27 20:51:54 2025
###

@<TRIPOS>MOLECULE
NO_INFO
744 749 1 0 0
SMALL
USER_CHARGES


@<TRIPOS>ATOM
      1 C          35.2899  145.8394   -0.9748 C.3       0      M_A    0.0000
      2 C          33.9534  145.8974   -1.7374 C.3       0      M_A    0.0000
      3 C          33.4920  147.3579   -1.8778 C.3       0      M_A    0.0000
      4 C          33.3088  147.9642   -0.4774 C.3       0      M_A    0.0000
      5 C          34.6428  147.9265    0.2980 C.3       0      M_A    0.0000
      6 C          35.0856  146.4549    0.4247 C.3       0      M_A    0.0000
      7 C          35.7520  148.6999   -0.4556 C.3       0      M_A    0.0000
      8 C          35.9074  148.1217   -1.8815 C.3       0      M_A    0.0000
      9 C          34.5603  148.1589   -2.6407 C.3       0      M_A    0.0000
     10 C          36.3491  146.6365   -1.7769 C.3       0      M_A    0.0000
     11 N          37.6775  146.4743   -1.2014 N.3       0      M_A    0.0000
     12 C          37.9817  145.4680   -0.2964 C.2       0      M_A    0.0000
     13 O          38.1365  145.6863    0.9045 O.2       0      M_A    0.0000
     14 C          38.0842  144.0488   -0.8842 C.3       0      M_A    0.0000
     15 H          35.6045  144.7943   -0.8691 H         0      M_A    0.0000
     16 H          33.1924  145.3131   -1.2056 H         0      M_A    0.0000
     17 H          34.0664  145.4424   -2.7291 H         0      M_A    0.0000
     18 H          32.5427  147.3933   -2.4237 H         0      M_A    0.0000
     19 H          32.9376  148.9925   -0.5591 H         0      M_A    0.0000
     20 H          32.5441  147.4021    0.0736 H         0      M_A    0.0000
     21 H          34.4920  148.3458    1.3005 H         0      M_A    0.0000
     22 H          34.3278  145.8834    0.9752 H         0      M_A    0.0000
     23 H          36.0101  146.3900    1.0106 H         0      M_A    0.0000
     24 H          36.6965  148.5620    0.0883 H         0      M_A    0.0000
     25 H          36.6467  148.7024   -2.4458 H         0      M_A    0.0000
     26 H          34.6909  147.7395   -3.6463 H         0      M_A    0.0000
     27 H          34.2244  149.1933   -2.7795 H         0      M_A    0.0000
     28 H          36.4112  146.2171   -2.7905 H         0      M_A    0.0000
     29 H          38.3105  147.2762   -1.1570 H         0      M_A    0.0000
     30 H          38.9190  143.5422   -0.3896 H         0      M_A    0.0000
     31 H          38.3103  144.1445   -1.9512 H         0      M_A    0.0000
     32 C          36.7689  143.1996   -0.7070 C.3       1      M_B    0.0000
     33 C          37.0517  141.7270   -0.4370 C.3       1      M_B    0.0000
     34 O          35.8122  141.0211   -0.4061 O.3       1      M_B    0.0000
     35 H          36.2027  143.6154    0.1341 H         1      M_B    0.0000
     36 H          36.1535  143.3064   -1.6076 H         1      M_B    0.0000
     37 H          37.7096  141.2986   -1.2050 H         1      M_B    0.0000
     38 H          37.5517  141.6500    0.5387 H         1      M_B    0.0000
     39 C          35.8605  139.9679    0.5326 C.3       2      M_B    0.0000
     40 C          37.1640  139.1817    0.4674 C.3       2      M_B    0.0000
     41 O          36.8557  137.7924    0.3639 O.3       2      M_B    0.0000
     42 H          35.7509  140.3967    1.5351 H         2      M_B    0.0000
     43 H          35.0085  139.3003    0.3612 H         2      M_B    0.0000
     44 H          37.7783  139.4955   -0.3872 H         2      M_B    0.0000
     45 H          37.7237  139.3737    1.3936 H         2      M_B    0.0000
     46 C          35.4899  137.6053    0.0602 C.3       3      M_B    0.0000
     47 C          35.0006  136.2013    0.3932 C.3       3      M_B    0.0000
     48 O          35.2241  135.3590   -0.7365 O.3       3      M_B    0.0000
     49 H          34.9075  138.3333    0.6363 H         3      M_B    0.0000
     50 H          35.3303  137.8180   -1.0029 H         3      M_B    0.0000
     51 H          35.5175  135.7956    1.2732 H         3      M_B    0.0000
     52 H          33.9249  136.2588    0.6113 H         3      M_B    0.0000
     53 C          35.0193  134.0041   -0.3975 C.3       4      M_B    0.0000
     54 C          36.0823  133.4689    0.5538 C.3       4      M_B    0.0000
     55 O          36.4692  132.1655    0.1211 O.3       4      M_B    0.0000
     56 H          34.0358  133.9142    0.0776 H         4      M_B    0.0000
     57 H          35.0007  133.4072   -1.3164 H         4      M_B    0.0000
     58 H          36.9587  134.1299    0.5872 H         4      M_B    0.0000
     59 H          35.6426  133.4151    1.5596 H         4      M_B    0.0000
     60 C          36.8982  131.3831    1.2149 C.3       5      M_B    0.0000
     61 C          37.7315  130.1814    0.7871 C.3       5      M_B    0.0000
     62 O          36.9281  129.0069    0.8917 O.3       5      M_B    0.0000
     63 H          37.4987  132.0179    1.8762 H         5      M_B    0.0000
     64 H          36.0199  131.0510    1.7799 H         5      M_B    0.0000
     65 H          38.0994  130.2952   -0.2414 H         5      M_B    0.0000
     66 H          38.5941  130.1073    1.4642 H         5      M_B    0.0000
     67 C          37.7086  127.9023    1.2956 C.3       6      M_B    0.0000
     68 C          38.0413  126.9642    0.1420 C.3       6      M_B    0.0000
     69 O          37.9674  125.6186    0.6106 O.3       6      M_B    0.0000
     70 H          38.6411  128.2813    1.7291 H         6      M_B    0.0000
     71 H          37.1733  127.3580    2.0819 H         6      M_B    0.0000
     72 H          37.3526  127.1073   -0.7014 H         6      M_B    0.0000
     73 H          39.0631  127.1885   -0.1950 H         6      M_B    0.0000
     74 C          38.5675  124.7348   -0.3122 C.3       7      M_B    0.0000
     75 C          38.2211  123.2763   -0.0399 C.3       7      M_B    0.0000
     76 O          39.4015  122.4894   -0.1927 O.3       7      M_B    0.0000
     77 H          38.2233  125.0028   -1.3174 H         7      M_B    0.0000
     78 H          39.6539  124.8760   -0.2838 H         7      M_B    0.0000
     79 H          37.8092  123.1445    0.9696 H         7      M_B    0.0000
     80 H          37.4644  122.9638   -0.7732 H         7      M_B    0.0000
     81 C          39.0734  121.1523   -0.5044 C.3       8      M_B    0.0000
     82 C          39.8582  120.1453    0.3271 C.3       8      M_B    0.0000
     83 O          40.4154  119.1651   -0.5473 O.3       8      M_B    0.0000
     84 H          38.0023  121.0103   -0.3213 H         8      M_B    0.0000
     85 H          39.2540  120.9821   -1.5719 H         8      M_B    0.0000
     86 H          40.6565  120.6354    0.9004 H         8      M_B    0.0000
     87 H          39.1612  119.6679    1.0301 H         8      M_B    0.0000
     88 C          41.3483  118.3572    0.1379 C.3       9      M_B    0.0000
     89 C          42.1982  117.5130   -0.8036 C.3       9      M_B    0.0000
     90 O          42.8076  116.4637   -0.0530 O.3       9      M_B    0.0000
     91 H          42.0045  119.0116    0.7227 H         9      M_B    0.0000
     92 H          40.8099  117.7116    0.8410 H         9      M_B    0.0000
     93 H          41.5943  117.0912   -1.6182 H         9      M_B    0.0000
     94 H          42.9719  118.1619   -1.2376 H         9      M_B    0.0000
     95 C          43.7890  116.9796    0.8206 C.3      10      M_B    0.0000
     96 C          45.1772  116.4157    0.5441 C.3      10      M_B    0.0000
     97 O          45.3533  115.2319    1.3210 O.3      10      M_B    0.0000
     98 H          43.8151  118.0687    0.7025 H        10      M_B    0.0000
     99 H          43.4933  116.7639    1.8536 H        10      M_B    0.0000
    100 H          45.3121  116.1895   -0.5221 H        10      M_B    0.0000
    101 H          45.9170  117.1724    0.8406 H        10      M_B    0.0000
    102 C          46.4698  114.4976    0.8661 C.3      11      M_B    0.0000
    103 C          46.0833  113.3618   -0.0731 C.3      11      M_B    0.0000
    104 O          47.1882  112.4662   -0.1870 O.3      11      M_B    0.0000
    105 H          47.1410  115.1851    0.3392 H        11      M_B    0.0000
    106 H          47.0117  114.1023    1.7328 H        11      M_B    0.0000
    107 H          45.1988  112.8235    0.2927 H        11      M_B    0.0000
    108 H          45.8504  113.7969   -1.0551 H        11      M_B    0.0000
    109 C          48.4096  113.1592   -0.0435 C.3      12      M_B    0.0000
    110 C          49.5976  112.3756   -0.5876 C.3      12      M_B    0.0000
    111 O          50.3610  111.8803    0.5114 O.3      12      M_B    0.0000
    112 H          48.3302  114.1096   -0.5833 H        12      M_B    0.0000
    113 H          48.5641  113.3906    1.0165 H        12      M_B    0.0000
    114 H          49.2699  111.5426   -1.2239 H        12      M_B    0.0000
    115 H          50.2096  113.0608   -1.1908 H        12      M_B    0.0000
    116 C          51.3246  110.9479    0.0701 C.3      13      M_B    0.0000
    117 C          52.2649  110.5028    1.1833 C.3      13      M_B    0.0000
    118 O          53.4074  109.8816    0.5961 O.3      13      M_B    0.0000
    119 H          50.7983  110.0719   -0.3255 H        13      M_B    0.0000
    120 H          51.8972  111.3916   -0.7523 H        13      M_B    0.0000
    121 H          52.5769  111.3514    1.8068 H        13      M_B    0.0000
    122 H          51.7277  109.7804    1.8138 H        13      M_B    0.0000
    123 C          54.0452  109.0304    1.5242 C.3      14      M_B    0.0000
    124 C          55.5631  109.0518    1.3948 C.3      14      M_B    0.0000
    125 O          55.9866  107.8389    0.7740 O.3      14      M_B    0.0000
    126 H          53.7674  109.3541    2.5337 H        14      M_B    0.0000
    127 H          53.6694  108.0102    1.3867 H        14      M_B    0.0000
    128 H          55.9024  109.9144    0.8058 H        14      M_B    0.0000
    129 H          55.9897  109.1248    2.4051 H        14      M_B    0.0000
    130 C          57.2381  107.4285    1.2818 C.3      15      M_B    0.0000
    131 C          58.3856  108.3059    0.7973 C.3      15      M_B    0.0000
    132 O          59.4882  107.4684    0.4530 O.3      15      M_B    0.0000
    133 H          57.1942  107.4687    2.3761 H        15      M_B    0.0000
    134 H          57.4133  106.3857    0.9940 H        15      M_B    0.0000
    135 H          58.0880  108.9114   -0.0693 H        15      M_B    0.0000
    136 H          58.6685  108.9799    1.6181 H        15      M_B    0.0000
    137 C          60.7081  108.1632    0.6002 C.3      16      M_B    0.0000
    138 C          61.6474  107.9589   -0.5820 C.3      16      M_B    0.0000
    139 O          62.9633  108.3510   -0.1940 O.3      16      M_B    0.0000
    140 H          60.4847  109.2314    0.6994 H        16      M_B    0.0000
    141 H          61.1927  107.8371    1.5275 H        16      M_B    0.0000
    142 H          61.6495  106.9124   -0.9152 H        16      M_B    0.0000
    143 H          61.2959  108.5917   -1.4090 H        16      M_B    0.0000
    144 C          62.9276  109.5475    0.5542 C.3      17      M_B    0.0000
    145 C          64.0632  110.4984    0.1969 C.3      17      M_B    0.0000
    146 O          65.1369  110.2938    1.1141 O.3      17      M_B    0.0000
    147 H          61.9702  110.0446    0.3608 H        17      M_B    0.0000
    148 H          62.9644  109.3001    1.6212 H        17      M_B    0.0000
    149 H          64.4114  110.3371   -0.8321 H        17      M_B    0.0000
    150 H          63.6859  111.5269    0.2846 H        17      M_B    0.0000
    151 C          65.8504  111.4937    1.3232 C.3      18      M_B    0.0000
    152 C          66.8013  111.8195    0.1781 C.3      18      M_B    0.0000
    153 O          68.0819  112.1350    0.7225 O.3      18      M_B    0.0000
    154 H          65.1263  112.3093    1.4302 H        18      M_B    0.0000
    155 H          66.4063  111.4166    2.2646 H        18      M_B    0.0000
    156 H          66.8871  110.9780   -0.5224 H        18      M_B    0.0000
    157 H          66.3988  112.6882   -0.3616 H        18      M_B    0.0000
    158 C          68.0508  113.3831    1.3812 C.3      19      M_B    0.0000
    159 C          68.8827  114.4436    0.6707 C.3      19      M_B    0.0000
    160 O          70.1724  114.4965    1.2786 O.3      19      M_B    0.0000
    161 H          67.0089  113.7191    1.4304 H        19      M_B    0.0000
    162 H          68.4068  113.2508    2.4092 H        19      M_B    0.0000
    163 H          68.9805  114.2240   -0.4008 H        19      M_B    0.0000
    164 H          68.3730  115.4103    0.7876 H        19      M_B    0.0000
    165 C          71.0243  115.3688    0.5673 C.3      20      M_B    0.0000
    166 C          72.4506  114.8430    0.4639 C.3      20      M_B    0.0000
    167 O          73.3223  115.9368    0.1820 O.3      20      M_B    0.0000
    168 H          70.6168  115.4991   -0.4416 H        20      M_B    0.0000
    169 H          71.0184  116.3489    1.0577 H        20      M_B    0.0000
    170 H          72.7612  114.3437    1.3914 H        20      M_B    0.0000
    171 H          72.4856  114.1140   -0.3579 H        20      M_B    0.0000
    172 C          72.8233  117.1310    0.7456 C.3      21      M_B    0.0000
    173 C          73.4671  118.3765    0.1489 C.3      21      M_B    0.0000
    174 O          74.6113  118.7187    0.9295 O.3      21      M_B    0.0000
    175 H          71.7423  117.1677    0.5699 H        21      M_B    0.0000
    176 H          72.9837  117.1060    1.8294 H        21      M_B    0.0000
    177 H          73.7600  118.2136   -0.8969 H        21      M_B    0.0000
    178 H          72.7303  119.1912    0.1861 H        21      M_B    0.0000
    179 C          75.1220  119.9765    0.5422 C.3      22      M_B    0.0000
    180 C          76.4674  119.8722   -0.1651 C.3      22      M_B    0.0000
    181 O          77.2511  121.0161    0.1714 O.3      22      M_B    0.0000
    182 H          74.3983  120.4475   -0.1326 H        22      M_B    0.0000
    183 H          75.2112  120.6121    1.4305 H        22      M_B    0.0000
    184 H          76.9993  118.9546    0.1198 H        22      M_B    0.0000
    185 H          76.2815  119.8504   -1.2481 H        22      M_B    0.0000
    186 C          78.6287  120.7208    0.0841 C.3      23      M_B    0.0000
    187 C          79.5064  121.8487    0.6122 C.3      23      M_B    0.0000
    188 O          79.9882  122.6100   -0.4941 O.3      23      M_B    0.0000
    189 H          78.8227  119.8133    0.6670 H        23      M_B    0.0000
    190 H          78.8800  120.5052   -0.9607 H        23      M_B    0.0000
    191 H          78.9513  122.4980    1.3025 H        23      M_B    0.0000
    192 H          80.3502  121.3981    1.1534 H        23      M_B    0.0000
    193 C          80.6758  123.7592   -0.0479 C.3      24      M_B    0.0000
    194 C          79.7572  124.7673    0.6311 C.3      24      M_B    0.0000
    195 O          80.3541  126.0604    0.5457 O.3      24      M_B    0.0000
    196 H          81.4476  123.4428    0.6628 H        24      M_B    0.0000
    197 H          81.1807  124.2247   -0.9020 H        24      M_B    0.0000
    198 H          78.7630  124.7803    0.1647 H        24      M_B    0.0000
    199 H          79.6488  124.4731    1.6845 H        24      M_B    0.0000
    200 C          81.7611  125.9585    0.4947 C.3      25      M_B    0.0000
    201 C          82.4552  127.3007    0.6901 C.3      25      M_B    0.0000
    202 O          83.3931  127.4893   -0.3685 O.3      25      M_B    0.0000
    203 H          82.0840  125.2703    1.2839 H        25      M_B    0.0000
    204 H          82.0506  125.5208   -0.4675 H        25      M_B    0.0000
    205 H          81.7319  128.1270    0.7036 H        25      M_B    0.0000
    206 H          82.9796  127.2751    1.6556 H        25      M_B    0.0000
    207 C          83.7033  128.8577   -0.5230 C.3      26      M_B    0.0000
    208 C          85.1487  129.1771   -0.1622 C.3      26      M_B    0.0000
    209 O          85.2832  130.5905   -0.0201 O.3      26      M_B    0.0000
    210 H          83.5260  129.1337   -1.5686 H        26      M_B    0.0000
    211 H          83.0203  129.4487    0.0976 H        26      M_B    0.0000
    212 H          85.4494  128.6753    0.7673 H        26      M_B    0.0000
    213 H          85.7904  128.8196   -0.9797 H        26      M_B    0.0000
    214 C          86.2736  130.9043    0.9355 C.3      27      M_B    0.0000
    215 C          86.6403  132.3832    0.9381 C.3      27      M_B    0.0000
    216 O          87.9757  132.5243    0.4558 O.3      27      M_B    0.0000
    217 H          85.8946  130.6277    1.9258 H        27      M_B    0.0000
    218 H          87.1632  130.2956    0.7377 H        27      M_B    0.0000
    219 H          85.9511  132.9675    0.3139 H        27      M_B    0.0000
    220 H          86.5747  132.7480    1.9728 H        27      M_B    0.0000
    221 C          88.3242  133.8875    0.3424 C.3      28      M_B    0.0000
    222 C          89.6555  134.0968   -0.3684 C.3      28      M_B    0.0000
    223 O          90.2965  135.2433    0.1889 O.3      28      M_B    0.0000
    224 H          87.5341  134.3980   -0.2198 H        28      M_B    0.0000
    225 H          88.3582  134.3297    1.3446 H        28      M_B    0.0000
    226 H          90.3051  133.2169   -0.2686 H        28      M_B    0.0000
    227 H          89.4491  134.2638   -1.4349 H        28      M_B    0.0000
    228 C          91.6992  135.1373    0.0722 C.3      29      M_B    0.0000
    229 C          92.4220  136.4115    0.4912 C.3      29      M_B    0.0000
    230 O          93.6376  136.5125   -0.2491 O.3      29      M_B    0.0000
    231 H          92.0348  134.3099    0.7077 H        29      M_B    0.0000
    232 H          91.9511  134.8843   -0.9640 H        29      M_B    0.0000
    233 H          91.8004  137.2999    0.3169 H        29      M_B    0.0000
    234 H          92.6420  136.3400    1.5656 H        29      M_B    0.0000
    235 C          94.1438  137.8293   -0.2006 C.3      30      M_B    0.0000
    236 C          95.6290  137.9008   -0.5332 C.3      30      M_B    0.0000
    237 O          96.2459  138.8544    0.3304 O.3      30      M_B    0.0000
    238 H          93.5859  138.4381   -0.9210 H        30      M_B    0.0000
    239 H          93.9606  138.2435    0.7975 H        30      M_B    0.0000
    240 H          96.1123  136.9214   -0.4186 H        30      M_B    0.0000
    241 H          95.7281  138.2230   -1.5793 H        30      M_B    0.0000
    242 C          97.6522  138.7797    0.2334 C.3      31      M_B    0.0000
    243 C          98.3316  140.1177    0.4971 C.3      31      M_B    0.0000
    244 O          99.6951  140.0273    0.0865 O.3      31      M_B    0.0000
    245 H          98.0081  138.0469    0.9664 H        31      M_B    0.0000
    246 H          97.9201  138.4106   -0.7631 H        31      M_B    0.0000
    247 H          97.8302  140.9338   -0.0402 H        31      M_B    0.0000
    248 H          98.2774  140.3200    1.5760 H        31      M_B    0.0000
    249 C         100.4311  141.1388    0.5508 C.3      32      M_B    0.0000
    250 C         101.7361  141.3389   -0.2097 C.3      32      M_B    0.0000
    251 O         102.8191  141.2845    0.7177 O.3      32      M_B    0.0000
    252 H          99.8093  142.0339    0.4366 H        32      M_B    0.0000
    253 H         100.6338  141.0087    1.6199 H        32      M_B    0.0000
    254 H         101.8676  140.5742   -0.9869 H        32      M_B    0.0000
    255 H         101.7022  142.3273   -0.6893 H        32      M_B    0.0000
    256 C         104.0210  140.9402    0.0622 C.3      33      M_B    0.0000
    257 C         105.2425  141.6012    0.6887 C.3      33      M_B    0.0000
    258 O         106.2424  141.7607   -0.3165 O.3      33      M_B    0.0000
    259 H         104.1385  139.8517    0.1109 H        33      M_B    0.0000
    260 H         103.9415  141.2194   -0.9945 H        33      M_B    0.0000
    261 H         104.9896  142.5764    1.1259 H        33      M_B    0.0000
    262 H         105.6141  140.9427    1.4863 H        33      M_B    0.0000
    263 C         107.5331  141.6100    0.2348 C.3      34      M_B    0.0000
    264 C         108.3950  142.8546    0.0625 C.3      34      M_B    0.0000
    265 O         109.7659  142.4606    0.0276 O.3      34      M_B    0.0000
    266 H         107.4265  141.3936    1.3037 H        34      M_B    0.0000
    267 H         108.0201  140.7465   -0.2325 H        34      M_B    0.0000
    268 H         108.1357  143.3967   -0.8567 H        34      M_B    0.0000
    269 H         108.2160  143.5140    0.9234 H        34      M_B    0.0000
    270 C         110.5999  143.5166    0.4541 C.3      35      M_B    0.0000
    271 C         111.9423  143.5333   -0.2665 C.3      35      M_B    0.0000
    272 O         112.9783  143.3190    0.6909 O.3      35      M_B    0.0000
    273 H         110.0800  144.4625    0.2644 H        35      M_B    0.0000
    274 H         110.7537  143.4326    1.5359 H        35      M_B    0.0000
    275 H         111.9867  142.7627   -1.0478 H        35      M_B    0.0000
    276 H         112.0639  144.5194   -0.7363 H        35      M_B    0.0000
    277 C         114.2471  143.3770    0.0751 C.3      36      M_B    0.0000
    278 C         115.0884  142.1355    0.3440 C.3      36      M_B    0.0000
    279 O         116.4605  142.4547    0.1176 O.3      36      M_B    0.0000
    280 H         114.0994  143.4821   -1.0057 H        36      M_B    0.0000
    281 H         114.7723  144.2720    0.4278 H        36      M_B    0.0000
    282 H         114.9509  141.7738    1.3718 H        36      M_B    0.0000
    283 H         114.7664  141.3489   -0.3529 H        36      M_B    0.0000
    284 C         117.3005  141.4502    0.6450 C.3      37      M_B    0.0000
    285 C         118.7680  141.6696    0.2991 C.3      37      M_B    0.0000
    286 O         119.4011  140.3982    0.1633 O.3      37      M_B    0.0000
    287 H         117.1865  141.4451    1.7349 H        37      M_B    0.0000
    288 H         116.9665  140.4757    0.2709 H        37      M_B    0.0000
    289 H         118.8785  142.2460   -0.6291 H        37      M_B    0.0000
    290 H         119.2308  142.2331    1.1215 H        37      M_B    0.0000
    291 C         120.4480  140.4601   -0.7817 C.3      38      M_B    0.0000
    292 C         121.0350  139.0904   -1.0993 C.3      38      M_B    0.0000
    293 O         122.2187  138.9087   -0.3237 O.3      38      M_B    0.0000
    294 H         120.0528  140.9026   -1.7030 H        38      M_B    0.0000
    295 H         121.2304  141.1266   -0.4014 H        38      M_B    0.0000
    296 H         120.3171  138.2877   -0.8839 H        38      M_B    0.0000
    297 H         121.2808  139.0658   -2.1703 H        38      M_B    0.0000
    298 C         122.5005  137.5357   -0.1567 C.3      39      M_B    0.0000
    299 C         123.7620  137.1007   -0.8920 C.3      39      M_B    0.0000
    300 O         123.8976  135.6856   -0.7703 O.3      39      M_B    0.0000
    301 H         122.6244  137.3387    0.9142 H        39      M_B    0.0000
    302 H         121.6408  136.9520   -0.5050 H        39      M_B    0.0000
    303 H         123.7256  137.3855   -1.9520 H        39      M_B    0.0000
    304 H         124.6197  137.6015   -0.4214 H        39      M_B    0.0000
    305 C         124.2451  135.3289    0.5505 C.3      40      M_B    0.0000
    306 C         124.8078  133.9165    0.6494 C.3      40      M_B    0.0000
    307 O         123.7666  133.0378    1.0735 O.3      40      M_B    0.0000
    308 H         124.9970  136.0398    0.9113 H        40      M_B    0.0000
    309 H         123.3601  135.4278    1.1894 H        40      M_B    0.0000
    310 H         125.2154  133.5798   -0.3132 H        40      M_B    0.0000
    311 H         125.6178  133.9242    1.3922 H        40      M_B    0.0000
    312 C         124.2990  131.8020    1.5003 C.3      41      M_B    0.0000
    313 C         125.3026  131.2215    0.5118 C.3      41      M_B    0.0000
    314 O         125.0650  129.8200    0.3885 O.3      41      M_B    0.0000
    315 H         124.7954  131.9572    2.4649 H        41      M_B    0.0000
    316 H         123.4754  131.0968    1.6596 H        41      M_B    0.0000
    317 H         125.2216  131.7047   -0.4710 H        41      M_B    0.0000
    318 H         126.3121  131.3972    0.9093 H        41      M_B    0.0000
    319 C         126.2700  129.1295    0.1357 C.3      42      M_B    0.0000
    320 C         126.0440  127.7745   -0.5232 C.3      42      M_B    0.0000
    321 O         126.4755  126.7520    0.3736 O.3      42      M_B    0.0000
    322 H         126.8887  129.7492   -0.5232 H        42      M_B    0.0000
    323 H         126.8119  129.0040    1.0799 H        42      M_B    0.0000
    324 H         124.9870  127.6266   -0.7819 H        42      M_B    0.0000
    325 H         126.6410  127.7409   -1.4454 H        42      M_B    0.0000
    326 C         126.6582  125.5314   -0.3115 C.3      43      M_B    0.0000
    327 C         125.7771  124.4140    0.2331 C.3      43      M_B    0.0000
    328 O         126.4135  123.1630   -0.0238 O.3      43      M_B    0.0000
    329 H         126.4194  125.6924   -1.3689 H        43      M_B    0.0000
    330 H         127.7138  125.2437   -0.2488 H        43      M_B    0.0000
    331 H         125.6010  124.5323    1.3106 H        43      M_B    0.0000
    332 H         124.8109  124.4575   -0.2891 H        43      M_B    0.0000
    333 C         126.5852  122.9657   -1.4110 C.3      44      M_B    0.0000
    334 C         126.1508  121.5779   -1.8656 C.3      44      M_B    0.0000
    335 O         127.2423  120.6761   -1.6889 O.3      44      M_B    0.0000
    336 H         125.9905  123.7184   -1.9407 H        44      M_B    0.0000
    337 H         127.6378  123.1337   -1.6657 H        44      M_B    0.0000
    338 H         125.2773  121.2267   -1.3001 H        44      M_B    0.0000
    339 H         125.8818  121.6372   -2.9295 H        44      M_B    0.0000
    340 C         127.0458  119.8722   -0.5453 C.3      45      M_B    0.0000
    341 C         127.4214  118.4143   -0.7799 C.3      45      M_B    0.0000
    342 O         126.6202  117.5932    0.0685 O.3      45      M_B    0.0000
    343 H         127.6621  120.2744    0.2667 H        45      M_B    0.0000
    344 H         125.9973  119.9463   -0.2353 H        45      M_B    0.0000
    345 H         127.2742  118.1271   -1.8296 H        45      M_B    0.0000
    346 H         128.4837  118.2917   -0.5262 H        45      M_B    0.0000
    347 C         127.2526  116.3538    0.3060 C.3      46      M_B    0.0000
    348 C         126.7319  115.2449   -0.5999 C.3      46      M_B    0.0000
    349 O         127.0605  113.9851   -0.0163 O.3      46      M_B    0.0000
    350 H         128.3280  116.4793    0.1364 H        46      M_B    0.0000
    351 H         127.1115  116.0790    1.3575 H        46      M_B    0.0000
    352 H         125.6457  115.3217   -0.7425 H        46      M_B    0.0000
    353 H         127.2240  115.3452   -1.5776 H        46      M_B    0.0000
    354 C         126.0822  113.0179   -0.3326 C.3      47      M_B    0.0000
    355 C         126.3398  111.6778    0.3450 C.3      47      M_B    0.0000
    356 O         126.8077  110.7520   -0.6347 O.3      47      M_B    0.0000
    357 H         125.1063  113.3995   -0.0119 H        47      M_B    0.0000
    358 H         126.0483  112.8899   -1.4206 H        47      M_B    0.0000
    359 H         127.0761  111.7735    1.1542 H        47      M_B    0.0000
    360 H         125.3906  111.3244    0.7718 H        47      M_B    0.0000
    361 C         126.3271  109.4527   -0.3638 C.3      48      M_B    0.0000
    362 C         127.3587  108.5790    0.3391 C.3      48      M_B    0.0000
    363 O         127.4016  107.3092   -0.3102 O.3      48      M_B    0.0000
    364 H         125.4395  109.5411    0.2728 H        48      M_B    0.0000
    365 H         126.0162  108.9857   -1.3052 H        48      M_B    0.0000
    366 H         128.3538  109.0435    0.3234 H        48      M_B    0.0000
    367 H         127.0437  108.4552    1.3848 H        48      M_B    0.0000
    368 C         128.5061  106.5548    0.1408 C.3      49      M_B    0.0000
    369 C         128.5633  105.1658   -0.4827 C.3      49      M_B    0.0000
    370 O         128.9621  104.2308    0.5186 O.3      49      M_B    0.0000
    371 H         129.4215  107.1001   -0.1153 H        49      M_B    0.0000
    372 H         128.4602  106.4763    1.2330 H        49      M_B    0.0000
    373 H         127.5911  104.8754   -0.9028 H        49      M_B    0.0000
    374 H         129.3056  105.1870   -1.2930 H        49      M_B    0.0000
    375 C         128.9912  102.9203   -0.0051 C.3      50      M_B    0.0000
    376 C         129.5379  101.9023    0.9879 C.3      50      M_B    0.0000
    377 O         129.8875  100.7141    0.2795 O.3      50      M_B    0.0000
    378 H         127.9687  102.6382   -0.2805 H        50      M_B    0.0000
    379 H         129.5950  102.9169   -0.9197 H        50      M_B    0.0000
    380 H         130.4145  102.2942    1.5210 H        50      M_B    0.0000
    381 H         128.7482  101.6836    1.7204 H        50      M_B    0.0000
    382 C         130.2406   99.6833    1.1769 C.3      51      M_B    0.0000
    383 C         131.1615   98.6455    0.5473 C.3      51      M_B    0.0000
    384 O         130.5926   97.3514    0.7409 O.3      51      M_B    0.0000
    385 H         130.7464  100.1358    2.0373 H        51      M_B    0.0000
    386 H         129.3261   99.2031    1.5433 H        51      M_B    0.0000
    387 H         131.3061   98.8365   -0.5245 H        51      M_B    0.0000
    388 H         132.1365   98.7058    1.0511 H        51      M_B    0.0000
    389 C         131.5200   96.3425    0.4022 C.3      52      M_B    0.0000
    390 C         130.8475   95.0677   -0.0918 C.3      52      M_B    0.0000
    391 O         131.7926   94.0003   -0.0349 O.3      52      M_B    0.0000
    392 H         132.1757   96.7298   -0.3857 H        52      M_B    0.0000
    393 H         132.1434   96.1253    1.2770 H        52      M_B    0.0000
    394 H         129.9644   94.8210    0.5126 H        52      M_B    0.0000
    395 H         130.5291   95.2318   -1.1309 H        52      M_B    0.0000
    396 C         131.1486   92.7780    0.2548 C.3      53      M_B    0.0000
    397 C         132.0992   91.7336    0.8266 C.3      53      M_B    0.0000
    398 O         132.4296   90.8029   -0.2033 O.3      53      M_B    0.0000
    399 H         130.3525   92.9737    0.9820 H        53      M_B    0.0000
    400 H         130.6781   92.3992   -0.6597 H        53      M_B    0.0000
    401 H         133.0129   92.1977    1.2215 H        53      M_B    0.0000
    402 H         131.5828   91.2168    1.6476 H        53      M_B    0.0000
    403 C         132.9564   89.6148    0.3476 C.3      54      M_B    0.0000
    404 C         134.4238   89.4041   -0.0040 C.3      54      M_B    0.0000
    405 O         134.7046   88.0054    0.0232 O.3      54      M_B    0.0000
    406 H         132.8533   89.6668    1.4373 H        54      M_B    0.0000
    407 H         132.3589   88.7656   -0.0031 H        54      M_B    0.0000
    408 H         134.6614   89.8164   -0.9938 H        54      M_B    0.0000
    409 H         135.0322   89.9235    0.7497 H        54      M_B    0.0000
    410 C         136.0467   87.7726    0.3934 C.3      55      M_B    0.0000
    411 C         136.6325   86.5318   -0.2690 C.3      55      M_B    0.0000
    412 O         136.6872   85.4812    0.6950 O.3      55      M_B    0.0000
    413 H         136.6395   88.6472    0.1025 H        55      M_B    0.0000
    414 H         136.1032   87.6801    1.4840 H        55      M_B    0.0000
    415 H         136.0320   86.2184   -1.1334 H        55      M_B    0.0000
    416 H         137.6466   86.7772   -0.6143 H        55      M_B    0.0000
    417 C         136.7509   84.2227    0.0589 C.3      56      M_B    0.0000
    418 C         137.2311   83.1168    0.9905 C.3      56      M_B    0.0000
    419 O         137.7123   82.0302    0.2008 O.3      56      M_B    0.0000
    420 H         135.7489   83.9723   -0.3074 H        56      M_B    0.0000
    421 H         137.4139   84.2976   -0.8106 H        56      M_B    0.0000
    422 H         138.0238   83.4745    1.6611 H        56      M_B    0.0000
    423 H         136.3761   82.7889    1.5983 H        56      M_B    0.0000
    424 C         137.4135   80.7952    0.8158 C.3      57      M_B    0.0000
    425 C         138.6196   79.8670    0.8873 C.3      57      M_B    0.0000
    426 O         138.3286   78.6810    0.1494 O.3      57      M_B    0.0000
    427 H         137.0555   80.9958    1.8320 H        57      M_B    0.0000
    428 H         136.5983   80.3124    0.2650 H        57      M_B    0.0000
    429 H         139.5202   80.3493    0.4844 H        57      M_B    0.0000
    430 H         138.7952   79.6181    1.9433 H        57      M_B    0.0000
    431 C         139.0272   77.5766    0.6833 C.3      58      M_B    0.0000
    432 C         140.3327   77.2962   -0.0504 C.3      58      M_B    0.0000
    433 O         140.6568   75.9153    0.1039 O.3      58      M_B    0.0000
    434 H         139.2462   77.7859    1.7365 H        58      M_B    0.0000
    435 H         138.3775   76.6947    0.6475 H        58      M_B    0.0000
    436 H         140.2545   77.5475   -1.1166 H        58      M_B    0.0000
    437 H         141.1176   77.9185    0.4021 H        58      M_B    0.0000
    438 C         140.2453   75.4441    1.3693 C.3      59      M_B    0.0000
    439 C         141.2499   74.4841    1.9943 C.3      59      M_B    0.0000
    440 O         140.9958   73.1700    1.4998 O.3      59      M_B    0.0000
    441 H         140.1157   76.3077    2.0314 H        59      M_B    0.0000
    442 H         139.2701   74.9548    1.2659 H        59      M_B    0.0000
    443 H         142.2823   74.7796    1.7644 H        59      M_B    0.0000
    444 H         141.1105   74.5080    3.0843 H        59      M_B    0.0000
    445 C         142.1139   72.6779    0.7924 C.3      60      M_B    0.0000
    446 C         142.1675   71.1555    0.7632 C.3      60      M_B    0.0000
    447 O         143.4886   70.7509    0.4070 O.3      60      M_B    0.0000
    448 H         142.0623   73.0541   -0.2356 H        60      M_B    0.0000
    449 H         143.0266   73.0787    1.2479 H        60      M_B    0.0000
    450 H         141.8921   70.7266    1.7360 H        60      M_B    0.0000
    451 H         141.4511   70.8044    0.0073 H        60      M_B    0.0000
    452 C         143.7865   71.1303   -0.9196 C.3      61      M_B    0.0000
    453 C         144.5343   70.0472   -1.6871 C.3      61      M_B    0.0000
    454 O         145.9294   70.1755   -1.4173 O.3      61      M_B    0.0000
    455 H         142.8436   71.3475   -1.4342 H        61      M_B    0.0000
    456 H         144.3757   72.0542   -0.9008 H        61      M_B    0.0000
    457 H         144.1871   69.0443   -1.4044 H        61      M_B    0.0000
    458 H         144.3442   70.1971   -2.7592 H        61      M_B    0.0000
    459 C         146.1606   70.2987   -0.0302 C.3      62      M_B    0.0000
    460 C         147.0767   69.2088    0.5122 C.3      62      M_B    0.0000
    461 O         146.2722   68.1423    1.0135 O.3      62      M_B    0.0000
    462 H         146.6187   71.2767    0.1557 H        62      M_B    0.0000
    463 H         145.1980   70.2772    0.4933 H        62      M_B    0.0000
    464 H         147.7565   68.8341   -0.2648 H        62      M_B    0.0000
    465 H         147.6754   69.6415    1.3260 H        62      M_B    0.0000
    466 C         146.9685   66.9163    0.9441 C.3      63      M_B    0.0000
    467 C         147.1445   66.4202   -0.4857 C.3      63      M_B    0.0000
    468 O         147.9764   65.2612   -0.4687 O.3      63      M_B    0.0000
    469 H         147.9558   67.0564    1.3985 H        63      M_B    0.0000
    470 H         146.4314   66.1690    1.5392 H        63      M_B    0.0000
    471 H         146.1774   66.1825   -0.9486 H        63      M_B    0.0000
    472 H         147.6265   67.2195   -1.0661 H        63      M_B    0.0000
    473 C         149.0970   65.4630    0.3656 C.3      64      M_B    0.0000
    474 C         150.4106   65.1020   -0.3167 C.3      64      M_B    0.0000
    475 O         151.1817   64.2955    0.5725 O.3      64      M_B    0.0000
    476 H         149.1229   66.5194    0.6558 H        64      M_B    0.0000
    477 H         148.9711   64.8701    1.2787 H        64      M_B    0.0000
    478 H         150.2378   64.5641   -1.2584 H        64      M_B    0.0000
    479 H         150.9472   66.0356   -0.5371 H        64      M_B    0.0000
    480 C         152.3329   63.7981   -0.0755 C.3      65      M_B    0.0000
    481 C         153.3692   63.2559    0.9010 C.3      65      M_B    0.0000
    482 O         154.6266   63.1689    0.2322 O.3      65      M_B    0.0000
    483 H         152.0246   62.9941   -0.7533 H        65      M_B    0.0000
    484 H         152.7705   64.5973   -0.6845 H        65      M_B    0.0000
    485 H         153.4582   63.8980    1.7875 H        65      M_B    0.0000
    486 H         153.0445   62.2558    1.2209 H        65      M_B    0.0000
    487 C         155.1301   64.4562   -0.0540 C.3      66      M_B    0.0000
    488 C         156.4642   64.4157   -0.7887 C.3      66      M_B    0.0000
    489 O         157.5152   64.3544    0.1744 O.3      66      M_B    0.0000
    490 H         154.3955   64.9817   -0.6747 H        66      M_B    0.0000
    491 H         155.2328   65.0138    0.8839 H        66      M_B    0.0000
    492 H         156.5227   63.5523   -1.4649 H        66      M_B    0.0000
    493 H         156.5534   65.3359   -1.3830 H        66      M_B    0.0000
    494 C         157.6038   63.0620    0.7353 C.3      67      M_B    0.0000
    495 C         159.0428   62.6238    0.9776 C.3      67      M_B    0.0000
    496 O         159.4489   61.7738   -0.0941 O.3      67      M_B    0.0000
    497 H         157.0648   63.0645    1.6894 H        67      M_B    0.0000
    498 H         157.1001   62.3513    0.0704 H        67      M_B    0.0000
    499 H         159.7174   63.4873    1.0494 H        67      M_B    0.0000
    500 H         159.0747   62.0713    1.9272 H        67      M_B    0.0000
    501 C         160.5390   60.9658    0.2950 C.3      68      M_B    0.0000
    502 C         161.7278   61.7805    0.7894 C.3      68      M_B    0.0000
    503 O         162.7975   61.6419   -0.1445 O.3      68      M_B    0.0000
    504 H         160.2029   60.2997    1.0977 H        68      M_B    0.0000
    505 H         160.8375   60.3399   -0.5536 H        68      M_B    0.0000
    506 H         161.4655   62.8405    0.9065 H        68      M_B    0.0000
    507 H         162.0301   61.3817    1.7679 H        68      M_B    0.0000
    508 C         164.0400   61.8859    0.4796 C.3      69      M_B    0.0000
    509 C         164.8126   63.0249   -0.1741 C.3      69      M_B    0.0000
    510 O         166.2064   62.8227    0.0543 O.3      69      M_B    0.0000
    511 H         163.8529   62.1367    1.5298 H        69      M_B    0.0000
    512 H         164.6348   60.9657    0.4580 H        69      M_B    0.0000
    513 H         164.6118   63.0775   -1.2525 H        69      M_B    0.0000
    514 H         164.4890   63.9665    0.2914 H        69      M_B    0.0000
    515 C         166.9298   64.0102   -0.1889 C.3      70      M_B    0.0000
    516 C         168.3674   63.7453   -0.6184 C.3      70      M_B    0.0000
    517 O         169.2439   64.4593    0.2521 O.3      70      M_B    0.0000
    518 H         166.4168   64.5683   -0.9803 H        70      M_B    0.0000
    519 H         166.9144   64.6270    0.7169 H        70      M_B    0.0000
    520 H         168.6019   62.6728   -0.5916 H        70      M_B    0.0000
    521 H         168.4864   64.1068   -1.6495 H        70      M_B    0.0000
    522 C         169.1654   65.8479    0.0108 C.3      71      M_B    0.0000
    523 C         169.7468   66.2435   -1.3408 C.3      71      M_B    0.0000
    524 O         171.1037   66.6440   -1.1556 O.3      71      M_B    0.0000
    525 H         168.1107   66.1432    0.0470 H        71      M_B    0.0000
    526 H         169.6872   66.3781    0.8156 H        71      M_B    0.0000
    527 H         169.6941   65.4132   -2.0576 H        71      M_B    0.0000
    528 H         169.1574   67.0849   -1.7315 H        71      M_B    0.0000
    529 C         171.9834   65.5820   -1.4569 C.3      72      M_B    0.0000
    530 C         172.9344   65.2629   -0.3100 C.3      72      M_B    0.0000
    531 O         174.2512   65.6675   -0.6814 O.3      72      M_B    0.0000
    532 H         171.3835   64.6930   -1.6822 H        72      M_B    0.0000
    533 H         172.5521   65.8369   -2.3584 H        72      M_B    0.0000
    534 H         172.6311   65.7720    0.6147 H        72      M_B    0.0000
    535 H         172.9095   64.1775   -0.1395 H        72      M_B    0.0000
    536 C         174.8336   66.4617    0.3299 C.3      73      M_B    0.0000
    537 C         175.9554   67.3501   -0.1931 C.3      73      M_B    0.0000
    538 O         177.0253   67.3396    0.7508 O.3      73      M_B    0.0000
    539 H         174.0500   67.0928    0.7642 H        73      M_B    0.0000
    540 H         175.2105   65.8061    1.1231 H        73      M_B    0.0000
    541 H         176.3143   67.0066   -1.1725 H        73      M_B    0.0000
    542 H         175.5597   68.3699   -0.3003 H        73      M_B    0.0000
    543 C         178.2053   67.8567    0.1739 C.3      74      M_B    0.0000
    544 C         178.7321   69.0817    0.9109 C.3      74      M_B    0.0000
    545 O         179.6484   69.7688    0.0599 O.3      74      M_B    0.0000
    546 H         178.9693   67.0713    0.1933 H        74      M_B    0.0000
    547 H         178.0086   68.1037   -0.8756 H        74      M_B    0.0000
    548 H         177.9150   69.7541    1.2047 H        74      M_B    0.0000
    549 H         179.2487   68.7370    1.8177 H        74      M_B    0.0000
    550 C         179.9886   71.0261    0.6040 C.3      75      M_B    0.0000
    551 C         180.8337   71.8677   -0.3440 C.3      75      M_B    0.0000
    552 O         181.5723   72.8179    0.4226 O.3      75      M_B    0.0000
    553 H         179.0612   71.5642    0.8303 H        75      M_B    0.0000
    554 H         180.5224   70.8714    1.5486 H        75      M_B    0.0000
    555 H         181.5201   71.2424   -0.9305 H        75      M_B    0.0000
    556 H         180.1547   72.3887   -1.0336 H        75      M_B    0.0000
    557 C         180.7170   73.8133    0.9424 C.3      76      M_B    0.0000
    558 C         180.9401   75.1755    0.2973 C.3      76      M_B    0.0000
    559 O         181.8831   75.9043    1.0818 O.3      76      M_B    0.0000
    560 H         179.6812   73.5004    0.7688 H        76      M_B    0.0000
    561 H         180.8674   73.8800    2.0259 H        76      M_B    0.0000
    562 H         181.3058   75.0751   -0.7333 H        76      M_B    0.0000
    563 H         179.9774   75.7054    0.2801 H        76      M_B    0.0000
    564 C         181.6965   77.2945    0.9228 C.3      77      M_B    0.0000
    565 C         182.6382   77.8996   -0.1108 C.3      77      M_B    0.0000
    566 O         183.2252   79.0780    0.4393 O.3      77      M_B    0.0000
    567 H         180.6611   77.4679    0.6086 H        77      M_B    0.0000
    568 H         181.8364   77.7847    1.8930 H        77      M_B    0.0000
    569 H         183.4233   77.1887   -0.4016 H        77      M_B    0.0000
    570 H         182.0468   78.1557   -1.0011 H        77      M_B    0.0000
    571 C         184.1914   79.6121   -0.4404 C.3      78      M_B    0.0000
    572 C         184.8454   80.8767    0.1023 C.3      78      M_B    0.0000
    573 O         184.4580   81.9794   -0.7160 O.3      78      M_B    0.0000
    574 H         184.9635   78.8519   -0.6043 H        78      M_B    0.0000
    575 H         183.7167   79.8178   -1.4065 H        78      M_B    0.0000
    576 H         184.5547   81.0616    1.1451 H        78      M_B    0.0000
    577 H         185.9352   80.7417    0.0585 H        78      M_B    0.0000
    578 C         185.5075   82.9178   -0.8191 C.3      79      M_B    0.0000
    579 C         185.3540   84.0807    0.1533 C.3      79      M_B    0.0000
    580 O         185.4377   85.3028   -0.5782 O.3      79      M_B    0.0000
    581 H         186.4514   82.4007   -0.6126 H        79      M_B    0.0000
    582 H         185.5506   83.2904   -1.8488 H        79      M_B    0.0000
    583 H         184.3980   84.0289    0.6913 H        79      M_B    0.0000
    584 H         186.1734   84.0238    0.8836 H        79      M_B    0.0000
    585 C         184.8165   86.3531    0.1315 C.3      80      M_B    0.0000
    586 C         185.1260   87.7240   -0.4569 C.3      80      M_B    0.0000
    587 O         185.3640   88.6379    0.6126 O.3      80      M_B    0.0000
    588 H         183.7332   86.1896    0.1076 H        80      M_B    0.0000
    589 H         185.1362   86.3115    1.1790 H        80      M_B    0.0000
    590 H         185.9999   87.6864   -1.1211 H        80      M_B    0.0000
    591 H         184.2531   88.0486   -1.0405 H        80      M_B    0.0000
    592 C         184.1645   88.9274    1.2983 C.3      81      M_B    0.0000
    593 C         183.1895   89.7431    0.4586 C.3      81      M_B    0.0000
    594 O         183.4140   91.1288    0.7138 O.3      81      M_B    0.0000
    595 H         183.6910   87.9790    1.5764 H        81      M_B    0.0000
    596 H         184.4050   89.4631    2.2236 H        81      M_B    0.0000
    597 H         183.3111   89.5333   -0.6125 H        81      M_B    0.0000
    598 H         182.1687   89.4671    0.7585 H        81      M_B    0.0000
    599 C         184.1619   91.7142   -0.3306 C.3      82      M_B    0.0000
    600 C         185.5231   92.2186    0.1322 C.3      82      M_B    0.0000
    601 O         185.6653   93.5816   -0.2652 O.3      82      M_B    0.0000
    602 H         184.3065   90.9606   -1.1130 H        82      M_B    0.0000
    603 H         183.5823   92.5371   -0.7642 H        82      M_B    0.0000
    604 H         185.6332   92.1308    1.2214 H        82      M_B    0.0000
    605 H         186.2957   91.6044   -0.3512 H        82      M_B    0.0000
    606 C         186.0704   94.3802    0.8260 C.3      83      M_B    0.0000
    607 C         185.8651   95.8686    0.5734 C.3      83      M_B    0.0000
    608 O         187.1323   96.5218    0.6325 O.3      83      M_B    0.0000
    609 H         185.4868   94.0824    1.7044 H        83      M_B    0.0000
    610 H         187.1253   94.1765    1.0426 H        83      M_B    0.0000
    611 H         185.3947   96.0477   -0.4027 H        83      M_B    0.0000
    612 H         185.2047   96.2593    1.3603 H        83      M_B    0.0000
    613 C         186.9902   97.9085    0.4097 C.3      84      M_B    0.0000
    614 C         186.4677   98.2293   -0.9851 C.3      84      M_B    0.0000
    615 O         186.6692   99.6185   -1.2409 O.3      84      M_B    0.0000
    616 H         186.2908   98.3056    1.1541 H        84      M_B    0.0000
    617 H         187.9590   98.3950    0.5706 H        84      M_B    0.0000
    618 H         186.9759   97.6282   -1.7509 H        84      M_B    0.0000
    619 H         185.3940   97.9956   -1.0082 H        84      M_B    0.0000
    620 C         187.5968  100.1650   -0.3278 C.3      85      M_B    0.0000
    621 C         187.1752  101.5347    0.1896 C.3      85      M_B    0.0000
    622 O         188.1863  102.4827   -0.1489 O.3      85      M_B    0.0000
    623 H         187.6911   99.4759    0.5191 H        85      M_B    0.0000
    624 H         188.5768  100.2308   -0.8140 H        85      M_B    0.0000
    625 H         186.2115  101.8441   -0.2365 H        85      M_B    0.0000
    626 H         187.0731  101.4690    1.2819 H        85      M_B    0.0000
    627 C         187.7141  103.8012    0.0281 C.3      86      M_B    0.0000
    628 C         188.6444  104.8451   -0.5769 C.3      86      M_B    0.0000
    629 O         188.4409  106.0855    0.0982 O.3      86      M_B    0.0000
    630 H         186.7300  103.8799   -0.4477 H        86      M_B    0.0000
    631 H         187.5816  103.9899    1.0995 H        86      M_B    0.0000
    632 H         189.6961  104.5398   -0.4942 H        86      M_B    0.0000
    633 H         188.3904  104.9512   -1.6410 H        86      M_B    0.0000
    634 C         189.6371  106.8339    0.1390 C.3      87      M_B    0.0000
    635 C         189.4068  108.2899    0.5242 C.3      87      M_B    0.0000
    636 O         190.2966  109.1096   -0.2321 O.3      87      M_B    0.0000
    637 H         190.3065  106.3711    0.8729 H        87      M_B    0.0000
    638 H         190.1258  106.7757   -0.8403 H        87      M_B    0.0000
    639 H         188.3675  108.5930    0.3398 H        87      M_B    0.0000
    640 H         189.6200  108.3957    1.5972 H        87      M_B    0.0000
    641 C         189.8340  110.4426   -0.2738 C.3      88      M_B    0.0000
    642 C         190.9434  111.4407   -0.5813 C.3      88      M_B    0.0000
    643 O         190.8766  112.5053    0.3663 O.3      88      M_B    0.0000
    644 H         189.0631  110.5141   -1.0494 H        88      M_B    0.0000
    645 H         189.3638  110.6853    0.6860 H        88      M_B    0.0000
    646 H         191.9321  110.9643   -0.5429 H        88      M_B    0.0000
    647 H         190.7787  111.8304   -1.5956 H        88      M_B    0.0000
    648 C         191.7774  113.5365    0.0230 C.3      89      M_B    0.0000
    649 C         193.1629  113.3304    0.6224 C.3      89      M_B    0.0000
    650 O         193.9144  114.5326    0.4617 O.3      89      M_B    0.0000
    651 H         191.8611  113.5694   -1.0691 H        89      M_B    0.0000
    652 H         191.3622  114.4953    0.3540 H        89      M_B    0.0000
    653 H         193.1032  113.0634    1.6860 H        89      M_B    0.0000
    654 H         193.6497  112.5084    0.0790 H        89      M_B    0.0000
    655 C         193.7230  115.0726   -0.8284 C.3      90      M_B    0.0000
    656 C         194.8891  115.9426   -1.2806 C.3      90      M_B    0.0000
    657 O         194.6348  117.2900   -0.8857 O.3      90      M_B    0.0000
    658 H         193.6015  114.2423   -1.5332 H        90      M_B    0.0000
    659 H         192.7939  115.6538   -0.8357 H        90      M_B    0.0000
    660 H         195.8377  115.5966   -0.8485 H        90      M_B    0.0000
    661 H         194.9564  115.8791   -2.3757 H        90      M_B    0.0000
    662 C         195.6754  117.7744   -0.0640 C.3      91      M_B    0.0000
    663 C         196.5768  118.7704   -0.7828 C.3      91      M_B    0.0000
    664 O         197.7930  118.8999   -0.0481 O.3      91      M_B    0.0000
    665 H         195.2251  118.2632    0.8073 H        91      M_B    0.0000
    666 H         196.2656  116.9253    0.2989 H        91      M_B    0.0000
    667 H         196.7907  118.4474   -1.8105 H        91      M_B    0.0000
    668 H         196.0553  119.7372   -0.8183 H        91      M_B    0.0000
    669 C         198.5218  120.0278   -0.4834 C.3      92      M_B    0.0000
    670 C         200.0211  119.8832   -0.2543 C.3      92      M_B    0.0000
    671 O         200.5873  121.1834   -0.0961 O.3      92      M_B    0.0000
    672 H         198.3349  120.1644   -1.5546 H        92      M_B    0.0000
    673 H         198.1449  120.9161    0.0361 H        92      M_B    0.0000
    674 H         200.2333  119.2702    0.6319 H        92      M_B    0.0000
    675 H         200.4541  119.3904   -1.1361 H        92      M_B    0.0000
    676 C         201.7039  121.1402    0.7664 C.3      93      M_B    0.0000
    677 C         202.6633  122.3029    0.5447 C.3      93      M_B    0.0000
    678 O         203.9813  121.7829    0.3764 O.3      93      M_B    0.0000
    679 H         201.3403  121.1682    1.7998 H        93      M_B    0.0000
    680 H         202.2265  120.1876    0.6232 H        93      M_B    0.0000
    681 H         202.3774  122.8955   -0.3347 H        93      M_B    0.0000
    682 H         202.6256  122.9491    1.4329 H        93      M_B    0.0000
    683 C         204.8939  122.8200    0.0861 C.3      94      M_B    0.0000
    684 C         206.3376  122.3355    0.0355 C.3      94      M_B    0.0000
    685 O         207.2027  123.4687    0.0911 O.3      94      M_B    0.0000
    686 H         204.6265  123.2503   -0.8856 H        94      M_B    0.0000
    687 H         204.7869  123.6083    0.8400 H        94      M_B    0.0000
    688 H         206.5595  121.6516    0.8656 H        94      M_B    0.0000
    689 H         206.4832  121.7986   -0.9124 H        94      M_B    0.0000
    690 C         208.4042  123.2144   -0.6048 C.3      95      M_B    0.0000
    691 C         209.6231  123.8088    0.0897 C.3      95      M_B    0.0000
    692 O         210.3502  124.5937   -0.8543 O.3      95      M_B    0.0000
    693 H         208.5314  122.1288   -0.6842 H        95      M_B    0.0000
    694 H         208.3171  123.6144   -1.6214 H        95      M_B    0.0000
    695 H         209.3318  124.4279    0.9488 H        95      M_B    0.0000
    696 H         210.2484  122.9793    0.4485 H        95      M_B    0.0000
    697 C         211.3430  125.3604   -0.2069 C.3      96      M_B    0.0000
    698 C         212.6997  125.2659   -0.8937 C.3      96      M_B    0.0000
    699 O         213.7189  125.5374    0.0673 O.3      96      M_B    0.0000
    700 H         211.0177  126.4069   -0.1994 H        96      M_B    0.0000
    701 H         211.4238  125.0297    0.8348 H        96      M_B    0.0000
    702 H         212.8555  124.2733   -1.3371 H        96      M_B    0.0000
    703 H         212.7290  126.0185   -1.6941 H        96      M_B    0.0000
    704 C         214.9948  125.5074   -0.5359 C.3      97      M_B    0.0000
    705 C         216.0788  124.9992    0.4064 C.3      97      M_B    0.0000
    706 O         217.3512  125.3948   -0.1041 O.3      97      M_B    0.0000
    707 H         214.9449  124.8503   -1.4115 H        97      M_B    0.0000
    708 H         215.2440  126.5144   -0.8893 H        97      M_B    0.0000
    709 H         215.9423  125.3927    1.4226 H        97      M_B    0.0000
    710 H         216.0129  123.9027    0.4408 H        97      M_B    0.0000
    711 O         220.5787  123.0318    0.6247 O.2      98      M_C    0.0000
    712 C         220.7648  124.2242    0.3986 C.2      98      M_C    0.0000
    713 C         219.6253  125.2320    0.4547 C.3      98      M_C    0.0000
    714 O         218.3742  124.5692    0.4102 O.3      98      M_C    0.0000
    715 N         222.0023  124.7745    0.1286 N.3      98      M_C    0.0000
    716 C         223.2638  124.0305    0.0962 C.3      98      M_C    0.0000
    717 C         223.2661  122.9462   -1.0110 C.3      98      M_C    0.0000
    718 C         224.5844  122.1537   -0.9874 C.3      98      M_C    0.0000
    719 C         225.7589  123.1241   -1.2097 C.3      98      M_C    0.0000
    720 C         225.7980  124.1810   -0.0857 C.3      98      M_C    0.0000
    721 C         224.4726  124.9727   -0.1174 C.3      98      M_C    0.0000
    722 C         225.9822  123.4447    1.2614 C.3      98      M_C    0.0000
    723 C         224.7673  122.5176    1.5013 C.3      98      M_C    0.0000
    724 C         224.7349  121.4630    0.3779 C.3      98      M_C    0.0000
    725 C         223.4443  123.3099    1.4584 C.3      98      M_C    0.0000
    726 H         219.7588  125.9828   -0.3357 H        98      M_C    0.0000
    727 H         219.6852  125.7545    1.4163 H        98      M_C    0.0000
    728 H         221.9936  125.6946   -0.3090 H        98      M_C    0.0000
    729 H         222.4164  122.2644   -0.8737 H        98      M_C    0.0000
    730 H         223.1417  123.3933   -2.0036 H        98      M_C    0.0000
    731 H         224.5740  121.3995   -1.7823 H        98      M_C    0.0000
    732 H         226.7037  122.5672   -1.2332 H        98      M_C    0.0000
    733 H         225.6581  123.6174   -2.1844 H        98      M_C    0.0000
    734 H         226.6344  124.8678   -0.2659 H        98      M_C    0.0000
    735 H         224.3932  125.4907   -1.0812 H        98      M_C    0.0000
    736 H         224.4765  125.7618    0.6450 H        98      M_C    0.0000
    737 H         226.8853  122.8217    1.1949 H        98      M_C    0.0000
    738 H         224.8556  122.0097    2.4696 H        98      M_C    0.0000
    739 H         223.9023  120.7674    0.5401 H        98      M_C    0.0000
    740 H         225.6547  120.8655    0.3964 H        98      M_C    0.0000
    741 H         223.4109  124.0378    2.2794 H        98      M_C    0.0000
    742 H         222.6022  122.6264    1.6338 H        98      M_C    0.0000
    743 H         226.1496  124.1302    2.0922 H        98      M_C    0.0000
    744 H          35.5743  149.7753   -0.4556 H         0      M_A    0.0000
@<TRIPOS>BOND
     1     1     2      1
     2     1     6      1
     3     1    10      1
     4     1    15      1
     5     2     3      1
     6     2    16      1
     7     2    17      1
     8     3     4      1
     9     3     9      1
    10     3    18      1
    11     4     5      1
    12     4    19      1
    13     4    20      1
    14     5     6      1
    15     5     7      1
    16     5    21      1
    17     6    22      1
    18     6    23      1
    19     7     8      1
    20     7    24      1
    21     7   744      H
    22     8     9      1
    23     8    10      1
    24     8    25      1
    25     9    26      1
    26     9    27      1
    27    10    11      1
    28    10    28      1
    29    11    12      1
    30    11    29      1
    31    12    13      2
    32    12    14      1
    33    14    30      1
    34    14    31      1
    35    14    32      1
    36    32    33      1
    37    32    35      1
    38    32    36      1
    39    33    34      1
    40    33    37      1
    41    33    38      1
    42    34    39      1
    43    39    40      1
    44    39    42      1
    45    39    43      1
    46    40    41      1
    47    40    44      1
    48    40    45      1
    49    41    46      1
    50    46    47      1
    51    46    49      1
    52    46    50      1
    53    47    48      1
    54    47    51      1
    55    47    52      1
    56    48    53      1
    57    53    54      1
    58    53    56      1
    59    53    57      1
    60    54    55      1
    61    54    58      1
    62    54    59      1
    63    55    60      1
    64    60    61      1
    65    60    63      1
    66    60    64      1
    67    61    62      1
    68    61    65      1
    69    61    66      1
    70    62    67      1
    71    67    68      1
    72    67    70      1
    73    67    71      1
    74    68    69      1
    75    68    72      1
    76    68    73      1
    77    69    74      1
    78    74    75      1
    79    74    77      1
    80    74    78      1
    81    75    76      1
    82    75    79      1
    83    75    80      1
    84    76    81      1
    85    81    82      1
    86    81    84      1
    87    81    85      1
    88    82    83      1
    89    82    86      1
    90    82    87      1
    91    83    88      1
    92    88    89      1
    93    88    91      1
    94    88    92      1
    95    89    90      1
    96    89    93      1
    97    89    94      1
    98    90    95      1
    99    95    96      1
   100    95    98      1
   101    95    99      1
   102    96    97      1
   103    96   100      1
   104    96   101      1
   105    97   102      1
   106   102   103      1
   107   102   105      1
   108   102   106      1
   109   103   104      1
   110   103   107      1
   111   103   108      1
   112   104   109      1
   113   109   110      1
   114   109   112      1
   115   109   113      1
   116   110   111      1
   117   110   114      1
   118   110   115      1
   119   111   116      1
   120   116   117      1
   121   116   119      1
   122   116   120      1
   123   117   118      1
   124   117   121      1
   125   117   122      1
   126   118   123      1
   127   123   124      1
   128   123   126      1
   129   123   127      1
   130   124   125      1
   131   124   128      1
   132   124   129      1
   133   125   130      1
   134   130   131      1
   135   130   133      1
   136   130   134      1
   137   131   132      1
   138   131   135      1
   139   131   136      1
   140   132   137      1
   141   137   138      1
   142   137   140      1
   143   137   141      1
   144   138   139      1
   145   138   142      1
   146   138   143      1
   147   139   144      1
   148   144   145      1
   149   144   147      1
   150   144   148      1
   151   145   146      1
   152   145   149      1
   153   145   150      1
   154   146   151      1
   155   151   152      1
   156   151   154      1
   157   151   155      1
   158   152   153      1
   159   152   156      1
   160   152   157      1
   161   153   158      1
   162   158   159      1
   163   158   161      1
   164   158   162      1
   165   159   160      1
   166   159   163      1
   167   159   164      1
   168   160   165      1
   169   165   166      1
   170   165   168      1
   171   165   169      1
   172   166   167      1
   173   166   170      1
   174   166   171      1
   175   167   172      1
   176   172   173      1
   177   172   175      1
   178   172   176      1
   179   173   174      1
   180   173   177      1
   181   173   178      1
   182   174   179      1
   183   179   180      1
   184   179   182      1
   185   179   183      1
   186   180   181      1
   187   180   184      1
   188   180   185      1
   189   181   186      1
   190   186   187      1
   191   186   189      1
   192   186   190      1
   193   187   188      1
   194   187   191      1
   195   187   192      1
   196   188   193      1
   197   193   194      1
   198   193   196      1
   199   193   197      1
   200   194   195      1
   201   194   198      1
   202   194   199      1
   203   195   200      1
   204   200   201      1
   205   200   203      1
   206   200   204      1
   207   201   202      1
   208   201   205      1
   209   201   206      1
   210   202   207      1
   211   207   208      1
   212   207   210      1
   213   207   211      1
   214   208   209      1
   215   208   212      1
   216   208   213      1
   217   209   214      1
   218   214   215      1
   219   214   217      1
   220   214   218      1
   221   215   216      1
   222   215   219      1
   223   215   220      1
   224   216   221      1
   225   221   222      1
   226   221   224      1
   227   221   225      1
   228   222   223      1
   229   222   226      1
   230   222   227      1
   231   223   228      1
   232   228   229      1
   233   228   231      1
   234   228   232      1
   235   229   230      1
   236   229   233      1
   237   229   234      1
   238   230   235      1
   239   235   236      1
   240   235   238      1
   241   235   239      1
   242   236   237      1
   243   236   240      1
   244   236   241      1
   245   237   242      1
   246   242   243      1
   247   242   245      1
   248   242   246      1
   249   243   244      1
   250   243   247      1
   251   243   248      1
   252   244   249      1
   253   249   250      1
   254   249   252      1
   255   249   253      1
   256   250   251      1
   257   250   254      1
   258   250   255      1
   259   251   256      1
   260   256   257      1
   261   256   259      1
   262   256   260      1
   263   257   258      1
   264   257   261      1
   265   257   262      1
   266   258   263      1
   267   263   264      1
   268   263   266      1
   269   263   267      1
   270   264   265      1
   271   264   268      1
   272   264   269      1
   273   265   270      1
   274   270   271      1
   275   270   273      1
   276   270   274      1
   277   271   272      1
   278   271   275      1
   279   271   276      1
   280   272   277      1
   281   277   278      1
   282   277   280      1
   283   277   281      1
   284   278   279      1
   285   278   282      1
   286   278   283      1
   287   279   284      1
   288   284   285      1
   289   284   287      1
   290   284   288      1
   291   285   286      1
   292   285   289      1
   293   285   290      1
   294   286   291      1
   295   291   292      1
   296   291   294      1
   297   291   295      1
   298   292   293      1
   299   292   296      1
   300   292   297      1
   301   293   298      1
   302   298   299      1
   303   298   301      1
   304   298   302      1
   305   299   300      1
   306   299   303      1
   307   299   304      1
   308   300   305      1
   309   305   306      1
   310   305   308      1
   311   305   309      1
   312   306   307      1
   313   306   310      1
   314   306   311      1
   315   307   312      1
   316   312   313      1
   317   312   315      1
   318   312   316      1
   319   313   314      1
   320   313   317      1
   321   313   318      1
   322   314   319      1
   323   319   320      1
   324   319   322      1
   325   319   323      1
   326   320   321      1
   327   320   324      1
   328   320   325      1
   329   321   326      1
   330   326   327      1
   331   326   329      1
   332   326   330      1
   333   327   328      1
   334   327   331      1
   335   327   332      1
   336   328   333      1
   337   333   334      1
   338   333   336      1
   339   333   337      1
   340   334   335      1
   341   334   338      1
   342   334   339      1
   343   335   340      1
   344   340   341      1
   345   340   343      1
   346   340   344      1
   347   341   342      1
   348   341   345      1
   349   341   346      1
   350   342   347      1
   351   347   348      1
   352   347   350      1
   353   347   351      1
   354   348   349      1
   355   348   352      1
   356   348   353      1
   357   349   354      1
   358   354   355      1
   359   354   357      1
   360   354   358      1
   361   355   356      1
   362   355   359      1
   363   355   360      1
   364   356   361      1
   365   361   362      1
   366   361   364      1
   367   361   365      1
   368   362   363      1
   369   362   366      1
   370   362   367      1
   371   363   368      1
   372   368   369      1
   373   368   371      1
   374   368   372      1
   375   369   370      1
   376   369   373      1
   377   369   374      1
   378   370   375      1
   379   375   376      1
   380   375   378      1
   381   375   379      1
   382   376   377      1
   383   376   380      1
   384   376   381      1
   385   377   382      1
   386   382   383      1
   387   382   385      1
   388   382   386      1
   389   383   384      1
   390   383   387      1
   391   383   388      1
   392   384   389      1
   393   389   390      1
   394   389   392      1
   395   389   393      1
   396   390   391      1
   397   390   394      1
   398   390   395      1
   399   391   396      1
   400   396   397      1
   401   396   399      1
   402   396   400      1
   403   397   398      1
   404   397   401      1
   405   397   402      1
   406   398   403      1
   407   403   404      1
   408   403   406      1
   409   403   407      1
   410   404   405      1
   411   404   408      1
   412   404   409      1
   413   405   410      1
   414   410   411      1
   415   410   413      1
   416   410   414      1
   417   411   412      1
   418   411   415      1
   419   411   416      1
   420   412   417      1
   421   417   418      1
   422   417   420      1
   423   417   421      1
   424   418   419      1
   425   418   422      1
   426   418   423      1
   427   419   424      1
   428   424   425      1
   429   424   427      1
   430   424   428      1
   431   425   426      1
   432   425   429      1
   433   425   430      1
   434   426   431      1
   435   431   432      1
   436   431   434      1
   437   431   435      1
   438   432   433      1
   439   432   436      1
   440   432   437      1
   441   433   438      1
   442   438   439      1
   443   438   441      1
   444   438   442      1
   445   439   440      1
   446   439   443      1
   447   439   444      1
   448   440   445      1
   449   445   446      1
   450   445   448      1
   451   445   449      1
   452   446   447      1
   453   446   450      1
   454   446   451      1
   455   447   452      1
   456   452   453      1
   457   452   455      1
   458   452   456      1
   459   453   454      1
   460   453   457      1
   461   453   458      1
   462   454   459      1
   463   459   460      1
   464   459   462      1
   465   459   463      1
   466   460   461      1
   467   460   464      1
   468   460   465      1
   469   461   466      1
   470   466   467      1
   471   466   469      1
   472   466   470      1
   473   467   468      1
   474   467   471      1
   475   467   472      1
   476   468   473      1
   477   473   474      1
   478   473   476      1
   479   473   477      1
   480   474   475      1
   481   474   478      1
   482   474   479      1
   483   475   480      1
   484   480   481      1
   485   480   483      1
   486   480   484      1
   487   481   482      1
   488   481   485      1
   489   481   486      1
   490   482   487      1
   491   487   488      1
   492   487   490      1
   493   487   491      1
   494   488   489      1
   495   488   492      1
   496   488   493      1
   497   489   494      1
   498   494   495      1
   499   494   497      1
   500   494   498      1
   501   495   496      1
   502   495   499      1
   503   495   500      1
   504   496   501      1
   505   501   502      1
   506   501   504      1
   507   501   505      1
   508   502   503      1
   509   502   506      1
   510   502   507      1
   511   503   508      1
   512   508   509      1
   513   508   511      1
   514   508   512      1
   515   509   510      1
   516   509   513      1
   517   509   514      1
   518   510   515      1
   519   515   516      1
   520   515   518      1
   521   515   519      1
   522   516   517      1
   523   516   520      1
   524   516   521      1
   525   517   522      1
   526   522   523      1
   527   522   525      1
   528   522   526      1
   529   523   524      1
   530   523   527      1
   531   523   528      1
   532   524   529      1
   533   529   530      1
   534   529   532      1
   535   529   533      1
   536   530   531      1
   537   530   534      1
   538   530   535      1
   539   531   536      1
   540   536   537      1
   541   536   539      1
   542   536   540      1
   543   537   538      1
   544   537   541      1
   545   537   542      1
   546   538   543      1
   547   543   544      1
   548   543   546      1
   549   543   547      1
   550   544   545      1
   551   544   548      1
   552   544   549      1
   553   545   550      1
   554   550   551      1
   555   550   553      1
   556   550   554      1
   557   551   552      1
   558   551   555      1
   559   551   556      1
   560   552   557      1
   561   557   558      1
   562   557   560      1
   563   557   561      1
   564   558   559      1
   565   558   562      1
   566   558   563      1
   567   559   564      1
   568   564   565      1
   569   564   567      1
   570   564   568      1
   571   565   566      1
   572   565   569      1
   573   565   570      1
   574   566   571      1
   575   571   572      1
   576   571   574      1
   577   571   575      1
   578   572   573      1
   579   572   576      1
   580   572   577      1
   581   573   578      1
   582   578   579      1
   583   578   581      1
   584   578   582      1
   585   579   580      1
   586   579   583      1
   587   579   584      1
   588   580   585      1
   589   585   586      1
   590   585   588      1
   591   585   589      1
   592   586   587      1
   593   586   590      1
   594   586   591      1
   595   587   592      1
   596   592   593      1
   597   592   595      1
   598   592   596      1
   599   593   594      1
   600   593   597      1
   601   593   598      1
   602   594   599      1
   603   599   600      1
   604   599   602      1
   605   599   603      1
   606   600   601      1
   607   600   604      1
   608   600   605      1
   609   601   606      1
   610   606   607      1
   611   606   609      1
   612   606   610      1
   613   607   608      1
   614   607   611      1
   615   607   612      1
   616   608   613      1
   617   613   614      1
   618   613   616      1
   619   613   617      1
   620   614   615      1
   621   614   618      1
   622   614   619      1
   623   615   620      1
   624   620   621      1
   625   620   623      1
   626   620   624      1
   627   621   622      1
   628   621   625      1
   629   621   626      1
   630   622   627      1
   631   627   628      1
   632   627   630      1
   633   627   631      1
   634   628   629      1
   635   628   632      1
   636   628   633      1
   637   629   634      1
   638   634   635      1
   639   634   637      1
   640   634   638      1
   641   635   636      1
   642   635   639      1
   643   635   640      1
   644   636   641      1
   645   641   642      1
   646   641   644      1
   647   641   645      1
   648   642   643      1
   649   642   646      1
   650   642   647      1
   651   643   648      1
   652   648   649      1
   653   648   651      1
   654   648   652      1
   655   649   650      1
   656   649   653      1
   657   649   654      1
   658   650   655      1
   659   655   656      1
   660   655   658      1
   661   655   659      1
   662   656   657      1
   663   656   660      1
   664   656   661      1
   665   657   662      1
   666   662   663      1
   667   662   665      1
   668   662   666      1
   669   663   664      1
   670   663   667      1
   671   663   668      1
   672   664   669      1
   673   669   670      1
   674   669   672      1
   675   669   673      1
   676   670   671      1
   677   670   674      1
   678   670   675      1
   679   671   676      1
   680   676   677      1
   681   676   679      1
   682   676   680      1
   683   677   678      1
   684   677   681      1
   685   677   682      1
   686   678   683      1
   687   683   684      1
   688   683   686      1
   689   683   687      1
   690   684   685      1
   691   684   688      1
   692   684   689      1
   693   685   690      1
   694   690   691      1
   695   690   693      1
   696   690   694      1
   697   691   692      1
   698   691   695      1
   699   691   696      1
   700   692   697      1
   701   697   698      1
   702   697   700      1
   703   697   701      1
   704   698   699      1
   705   698   702      1
   706   698   703      1
   707   699   704      1
   708   704   705      1
   709   704   707      1
   710   704   708      1
   711   705   706      1
   712   705   709      1
   713   705   710      1
   714   706   714      1
   715   711   712      2
   716   712   713      1
   717   712   715      1
   718   713   714      1
   719   713   726      1
   720   713   727      1
   721   715   716      1
   722   715   728      1
   723   716   717      1
   724   716   721      1
   725   716   725      1
   726   717   718      1
   727   717   729      1
   728   717   730      1
   729   718   719      1
   730   718   724      1
   731   718   731      1
   732   719   720      1
   733   719   732      1
   734   719   733      1
   735   720   721      1
   736   720   722      1
   737   720   734      1
   738   721   735      1
   739   721   736      1
   740   722   723      1
   741   722   737      1
   742   722   743      H
   743   723   724      1
   744   723   725      1
   745   723   738      1
   746   724   739      1
   747   724   740      1
   748   725   741      1
   749   725   742      1
