###
### Created by PolyChef-cpp17 on Thu Mar 27 20:46:14 2025
###

@<TRIPOS>MOLECULE
NO_INFO
485 490 1 0 0
SMALL
USER_CHARGES


@<TRIPOS>ATOM
      1 C          43.3070   64.9006   -1.2896 C.3       0      M_A    0.0000
      2 C          43.6616   64.0134   -2.4972 C.3       0      M_A    0.0000
      3 C          42.5665   62.9546   -2.7103 C.3       0      M_A    0.0000
      4 C          42.4577   62.0828   -1.4493 C.3       0      M_A    0.0000
      5 C          42.0897   62.9542   -0.2296 C.3       0      M_A    0.0000
      6 C          43.1993   64.0074   -0.0369 C.3       0      M_A    0.0000
      7 C          40.7520   63.6999   -0.4556 C.3       0      M_A    0.0000
      8 C          40.8427   64.5427   -1.7490 C.3       0      M_A    0.0000
      9 C          41.2207   63.6561   -2.9588 C.3       0      M_A    0.0000
     10 C          41.9593   65.6085   -1.5780 C.3       0      M_A    0.0000
     11 N          41.6536   66.5972   -0.5528 N.3       0      M_A    0.0000
     12 C          42.6005   67.4874   -0.0678 C.2       0      M_A    0.0000
     13 O          43.2168   67.2888    0.9784 O.2       0      M_A    0.0000
     14 C          42.8568   68.7310   -0.9383 C.3       0      M_A    0.0000
     15 H          44.0989   65.6440   -1.1383 H         0      M_A    0.0000
     16 H          44.6294   63.5239   -2.3318 H         0      M_A    0.0000
     17 H          43.7682   64.6298   -3.3982 H         0      M_A    0.0000
     18 H          42.8224   62.3285   -3.5723 H         0      M_A    0.0000
     19 H          41.7111   61.2946   -1.6010 H         0      M_A    0.0000
     20 H          43.4124   61.5736   -1.2661 H         0      M_A    0.0000
     21 H          42.0332   62.3214    0.6648 H         0      M_A    0.0000
     22 H          44.1591   63.5086    0.1478 H         0      M_A    0.0000
     23 H          42.9895   64.6159    0.8508 H         0      M_A    0.0000
     24 H          40.5865   64.3735    0.3963 H         0      M_A    0.0000
     25 H          39.8798   65.0260   -1.9529 H         0      M_A    0.0000
     26 H          41.2855   64.2734   -3.8637 H         0      M_A    0.0000
     27 H          40.4397   62.9107   -3.1496 H         0      M_A    0.0000
     28 H          42.0522   66.1724   -2.5164 H         0      M_A    0.0000
     29 H          40.8695   66.4391    0.0842 H         0      M_A    0.0000
     30 H          41.9152   69.2838   -1.0162 H         0      M_A    0.0000
     31 H          43.1485   68.3864   -1.9357 H         0      M_A    0.0000
     32 C          43.9807   69.6761   -0.3671 C.3       1      M_B    0.0000
     33 C          45.3496   69.3955   -0.9743 C.3       1      M_B    0.0000
     34 O          46.3191   70.2052   -0.3109 O.3       1      M_B    0.0000
     35 H          43.6992   70.7131   -0.5828 H         1      M_B    0.0000
     36 H          44.0207   69.5619    0.7222 H         1      M_B    0.0000
     37 H          45.6185   68.3347   -0.8818 H         1      M_B    0.0000
     38 H          45.3087   69.6574   -2.0409 H         1      M_B    0.0000
     39 C          46.2109   71.5514   -0.7217 C.3       2      M_B    0.0000
     40 C          47.5646   72.1891   -1.0085 C.3       2      M_B    0.0000
     41 O          47.8689   73.1078    0.0399 O.3       2      M_B    0.0000
     42 H          45.5998   71.5845   -1.6308 H         2      M_B    0.0000
     43 H          45.6839   72.1180    0.0543 H         2      M_B    0.0000
     44 H          48.3556   71.4313   -1.0862 H         2      M_B    0.0000
     45 H          47.4927   72.7235   -1.9663 H         2      M_B    0.0000
     46 C          49.1605   73.6511   -0.1314 C.3       3      M_B    0.0000
     47 C          49.8518   73.9525    1.1924 C.3       3      M_B    0.0000
     48 O          51.0142   74.7382    0.9331 O.3       3      M_B    0.0000
     49 H          49.7640   72.9301   -0.6944 H         3      M_B    0.0000
     50 H          49.0847   74.5636   -0.7336 H         3      M_B    0.0000
     51 H          49.1829   74.4861    1.8808 H         3      M_B    0.0000
     52 H          50.1402   72.9962    1.6511 H         3      M_B    0.0000
     53 C          51.3250   74.7307   -0.4439 C.3       4      M_B    0.0000
     54 C          52.7715   75.1203   -0.7222 C.3       4      M_B    0.0000
     55 O          52.8292   76.5259   -0.9599 O.3       4      M_B    0.0000
     56 H          51.1455   73.7212   -0.8306 H         4      M_B    0.0000
     57 H          50.6439   75.4128   -0.9652 H         4      M_B    0.0000
     58 H          53.4265   74.8536    0.1181 H         4      M_B    0.0000
     59 H          53.1047   74.5746   -1.6162 H         4      M_B    0.0000
     60 C          54.1685   76.9678   -1.0197 C.3       5      M_B    0.0000
     61 C          54.6291   77.6251    0.2754 C.3       5      M_B    0.0000
     62 O          55.7263   78.4897   -0.0153 O.3       5      M_B    0.0000
     63 H          54.8065   76.1014   -1.2279 H         5      M_B    0.0000
     64 H          54.2744   77.6677   -1.8563 H         5      M_B    0.0000
     65 H          53.8163   78.1940    0.7464 H         5      M_B    0.0000
     66 H          54.9495   76.8312    0.9646 H         5      M_B    0.0000
     67 C          56.3534   78.9181    1.1746 C.3       6      M_B    0.0000
     68 C          57.0753   80.2499    1.0121 C.3       6      M_B    0.0000
     69 O          58.4746   79.9998    0.8891 O.3       6      M_B    0.0000
     70 H          55.5854   79.0194    1.9498 H         6      M_B    0.0000
     71 H          57.0575   78.1451    1.5029 H         6      M_B    0.0000
     72 H          56.7121   80.7971    0.1319 H         6      M_B    0.0000
     73 H          56.8797   80.8545    1.9088 H         6      M_B    0.0000
     74 C          59.2095   81.1977    1.0218 C.3       7      M_B    0.0000
     75 C          59.8980   81.6115   -0.2729 C.3       7      M_B    0.0000
     76 O          61.0281   82.4212    0.0484 O.3       7      M_B    0.0000
     77 H          58.5193   81.9913    1.3296 H         7      M_B    0.0000
     78 H          59.9504   81.0731    1.8197 H         7      M_B    0.0000
     79 H          60.2157   80.7359   -0.8547 H         7      M_B    0.0000
     80 H          59.1796   82.1903   -0.8702 H         7      M_B    0.0000
     81 C          62.0857   81.6285    0.5441 C.3       8      M_B    0.0000
     82 C          63.2271   82.4611    1.1145 C.3       8      M_B    0.0000
     83 O          64.1630   82.7297    0.0716 O.3       8      M_B    0.0000
     84 H          61.6875   80.9794    1.3322 H         8      M_B    0.0000
     85 H          62.4549   80.9847   -0.2623 H         8      M_B    0.0000
     86 H          62.8599   83.4035    1.5425 H         8      M_B    0.0000
     87 H          63.7098   81.8766    1.9103 H         8      M_B    0.0000
     88 C          64.4794   84.1047    0.0265 C.3       9      M_B    0.0000
     89 C          65.9073   84.3645   -0.4371 C.3       9      M_B    0.0000
     90 O          66.3399   85.6165    0.0933 O.3       9      M_B    0.0000
     91 H          63.7840   84.5942   -0.6648 H         9      M_B    0.0000
     92 H          64.3208   84.5382    1.0205 H         9      M_B    0.0000
     93 H          66.5853   83.5639   -0.1124 H         9      M_B    0.0000
     94 H          65.9068   84.4025   -1.5355 H         9      M_B    0.0000
     95 C          67.7368   85.6168    0.2967 C.3      10      M_B    0.0000
     96 C          68.3168   87.0226    0.3910 C.3      10      M_B    0.0000
     97 O          69.6797   86.9844   -0.0296 O.3      10      M_B    0.0000
     98 H          67.9479   85.0792    1.2280 H        10      M_B    0.0000
     99 H          68.2147   85.0658   -0.5213 H        10      M_B    0.0000
    100 H          67.7514   87.7312   -0.2290 H        10      M_B    0.0000
    101 H          68.2568   87.3456    1.4398 H        10      M_B    0.0000
    102 C          70.1885   88.2909   -0.1935 C.3      11      M_B    0.0000
    103 C          71.6763   88.3055   -0.5215 C.3      11      M_B    0.0000
    104 O          72.3129   89.2958    0.2846 O.3      11      M_B    0.0000
    105 H          69.6375   88.7738   -1.0084 H        11      M_B    0.0000
    106 H          69.9985   88.8632    0.7216 H        11      M_B    0.0000
    107 H          72.1350   87.3236   -0.3435 H        11      M_B    0.0000
    108 H          71.7876   88.5592   -1.5851 H        11      M_B    0.0000
    109 C          73.6678   88.9659    0.5039 C.3      12      M_B    0.0000
    110 C          74.5953   90.1665    0.3636 C.3      12      M_B    0.0000
    111 O          75.9048   89.6982    0.0444 O.3      12      M_B    0.0000
    112 H          73.7618   88.5573    1.5163 H        12      M_B    0.0000
    113 H          73.9601   88.1792   -0.2009 H        12      M_B    0.0000
    114 H          74.2423   90.8562   -0.4147 H        12      M_B    0.0000
    115 H          74.6112   90.6982    1.3253 H        12      M_B    0.0000
    116 C          76.8662   90.7046    0.2797 C.3      13      M_B    0.0000
    117 C          78.1177   90.5328   -0.5722 C.3      13      M_B    0.0000
    118 O          79.2075   91.1839    0.0792 O.3      13      M_B    0.0000
    119 H          76.4096   91.6748    0.0534 H        13      M_B    0.0000
    120 H          77.1306   90.7013    1.3432 H        13      M_B    0.0000
    121 H          78.3526   89.4715   -0.7286 H        13      M_B    0.0000
    122 H          77.9311   91.0006   -1.5491 H        13      M_B    0.0000
    123 C          80.0780   91.7673   -0.8665 C.3      14      M_B    0.0000
    124 C          81.5419   91.4417   -0.5975 C.3      14      M_B    0.0000
    125 O          82.2684   92.6641   -0.4802 O.3      14      M_B    0.0000
    126 H          79.8050   91.3941   -1.8601 H        14      M_B    0.0000
    127 H          79.9268   92.8528   -0.8658 H        14      M_B    0.0000
    128 H          81.6576   90.8459    0.3178 H        14      M_B    0.0000
    129 H          81.9227   90.8592   -1.4481 H        14      M_B    0.0000
    130 C          83.4234   92.4846    0.3114 C.3      15      M_B    0.0000
    131 C          84.6545   93.1562   -0.2841 C.3      15      M_B    0.0000
    132 O          85.8183   92.4782    0.1865 O.3      15      M_B    0.0000
    133 H          83.2288   92.9084    1.3031 H        15      M_B    0.0000
    134 H          83.6036   91.4110    0.4379 H        15      M_B    0.0000
    135 H          84.6276   93.1399   -1.3819 H        15      M_B    0.0000
    136 H          84.6678   94.2023    0.0530 H        15      M_B    0.0000
    137 C          86.9769   93.2467   -0.0575 C.3      16      M_B    0.0000
    138 C          88.2139   92.3880   -0.2900 C.3      16      M_B    0.0000
    139 O          89.3696   93.1439    0.0688 O.3      16      M_B    0.0000
    140 H          86.7982   93.8645   -0.9448 H        16      M_B    0.0000
    141 H          87.1403   93.9216    0.7904 H        16      M_B    0.0000
    142 H          88.1735   91.4608    0.2972 H        16      M_B    0.0000
    143 H          88.2520   92.1283   -1.3573 H        16      M_B    0.0000
    144 C          90.5447   92.3916   -0.1458 C.3      17      M_B    0.0000
    145 C          91.7742   93.0271    0.4913 C.3      17      M_B    0.0000
    146 O          92.9280   92.6368   -0.2518 O.3      17      M_B    0.0000
    147 H          90.3957   91.3934    0.2814 H        17      M_B    0.0000
    148 H          90.6979   92.2724   -1.2244 H        17      M_B    0.0000
    149 H          91.6930   94.1221    0.5126 H        17      M_B    0.0000
    150 H          91.8509   92.6589    1.5240 H        17      M_B    0.0000
    151 C          93.9133   93.6468   -0.2111 C.3      18      M_B    0.0000
    152 C          95.2862   93.1464   -0.6425 C.3      18      M_B    0.0000
    153 O          96.1811   93.2548    0.4635 O.3      18      M_B    0.0000
    154 H          93.6015   94.4574   -0.8793 H        18      M_B    0.0000
    155 H          93.9626   94.0538    0.8053 H        18      M_B    0.0000
    156 H          95.2418   92.1055   -0.9899 H        18      M_B    0.0000
    157 H          95.6345   93.7800   -1.4703 H        18      M_B    0.0000
    158 C          97.0722   92.1604    0.4940 C.3      19      M_B    0.0000
    159 C          98.5334   92.5911    0.4692 C.3      19      M_B    0.0000
    160 O          99.3237   91.5013   -0.0037 O.3      19      M_B    0.0000
    161 H          96.8828   91.5894    1.4100 H        19      M_B    0.0000
    162 H          96.8579   91.5044   -0.3573 H        19      M_B    0.0000
    163 H          98.6808   93.4695   -0.1733 H        19      M_B    0.0000
    164 H          98.8289   92.8510    1.4954 H        19      M_B    0.0000
    165 C         100.5857   91.4883    0.6284 C.3      20      M_B    0.0000
    166 C         101.7206   91.1531   -0.3313 C.3      20      M_B    0.0000
    167 O         102.8382   90.6905    0.4254 O.3      20      M_B    0.0000
    168 H         100.7633   92.4797    1.0604 H        20      M_B    0.0000
    169 H         100.5627   90.7657    1.4521 H        20      M_B    0.0000
    170 H         101.4166   90.3888   -1.0591 H        20      M_B    0.0000
    171 H         101.9890   92.0702   -0.8743 H        20      M_B    0.0000
    172 C         104.0382   90.8688   -0.2963 C.3      21      M_B    0.0000
    173 C         104.6812   89.5488   -0.7033 C.3      21      M_B    0.0000
    174 O         105.9072   89.3977    0.0107 O.3      21      M_B    0.0000
    175 H         103.8133   91.4502   -1.1976 H        21      M_B    0.0000
    176 H         104.7350   91.4556    0.3129 H        21      M_B    0.0000
    177 H         104.0172   88.6992   -0.4948 H        21      M_B    0.0000
    178 H         104.8785   89.5854   -1.7839 H        21      M_B    0.0000
    179 C         106.1805   88.0338    0.2508 C.3      22      M_B    0.0000
    180 C         107.6727   87.7412    0.3469 C.3      22      M_B    0.0000
    181 O         107.9039   86.3985   -0.0769 O.3      22      M_B    0.0000
    182 H         105.6984   87.7480    1.1925 H        22      M_B    0.0000
    183 H         105.7296   87.4353   -0.5489 H        22      M_B    0.0000
    184 H         108.2573   88.4365   -0.2704 H        22      M_B    0.0000
    185 H         107.9759   87.8608    1.3965 H        22      M_B    0.0000
    186 C         109.2498   86.0315    0.1388 C.3      23      M_B    0.0000
    187 C         109.6378   84.7579   -0.6020 C.3      23      M_B    0.0000
    188 O         110.7690   84.1782    0.0462 O.3      23      M_B    0.0000
    189 H         109.8885   86.8535   -0.2035 H        23      M_B    0.0000
    190 H         109.4156   85.9072    1.2150 H        23      M_B    0.0000
    191 H         108.8077   84.0393   -0.6243 H        23      M_B    0.0000
    192 H         109.8962   85.0306   -1.6349 H        23      M_B    0.0000
    193 C         111.6058   83.5343   -0.8908 C.3      24      M_B    0.0000
    194 C         111.9830   82.1201   -0.4678 C.3      24      M_B    0.0000
    195 O         113.4005   81.9801   -0.5518 O.3      24      M_B    0.0000
    196 H         111.0778   83.4922   -1.8502 H        24      M_B    0.0000
    197 H         112.5088   84.1385   -1.0343 H        24      M_B    0.0000
    198 H         111.6435   81.9041    0.5541 H        24      M_B    0.0000
    199 H         111.4951   81.4171   -1.1576 H        24      M_B    0.0000
    200 C         113.8483   80.9280    0.2761 C.3      25      M_B    0.0000
    201 C         114.8996   80.0558   -0.3986 C.3      25      M_B    0.0000
    202 O         114.8878   78.7677    0.2149 O.3      25      M_B    0.0000
    203 H         114.2759   81.3654    1.1854 H        25      M_B    0.0000
    204 H         112.9870   80.3189    0.5731 H        25      M_B    0.0000
    205 H         114.7095   79.9611   -1.4761 H        25      M_B    0.0000
    206 H         115.8799   80.5312   -0.2538 H        25      M_B    0.0000
    207 C         116.0617   78.0516   -0.1045 C.3      26      M_B    0.0000
    208 C         115.8323   76.5469   -0.1723 C.3      26      M_B    0.0000
    209 O         117.0808   75.8845    0.0233 O.3      26      M_B    0.0000
    210 H         116.4237   78.4028   -1.0774 H        26      M_B    0.0000
    211 H         116.8319   78.2824    0.6402 H        26      M_B    0.0000
    212 H         115.1089   76.2178    0.5856 H        26      M_B    0.0000
    213 H         115.4330   76.3083   -1.1681 H        26      M_B    0.0000
    214 C         117.0267   74.5620   -0.4676 C.3      27      M_B    0.0000
    215 C         117.9436   73.6139    0.2951 C.3      27      M_B    0.0000
    216 O         118.6399   72.7963   -0.6443 O.3      27      M_B    0.0000
    217 H         115.9936   74.2066   -0.3826 H        27      M_B    0.0000
    218 H         117.2904   74.5673   -1.5313 H        27      M_B    0.0000
    219 H         118.6606   74.1653    0.9181 H        27      M_B    0.0000
    220 H         117.3187   72.9874    0.9470 H        27      M_B    0.0000
    221 C         119.8217   72.2760   -0.0739 C.3      28      M_B    0.0000
    222 C         120.1887   70.9056   -0.6295 C.3      28      M_B    0.0000
    223 O         120.8827   70.1736    0.3796 O.3      28      M_B    0.0000
    224 H         120.6391   72.9763   -0.2798 H        28      M_B    0.0000
    225 H         119.6966   72.2209    1.0134 H        28      M_B    0.0000
    226 H         119.2962   70.3515   -0.9497 H        28      M_B    0.0000
    227 H         120.8422   71.0555   -1.5005 H        28      M_B    0.0000
    228 C         120.6552   68.7878    0.2369 C.3      29      M_B    0.0000
    229 C         121.8856   67.9528    0.5687 C.3      29      M_B    0.0000
    230 O         121.9564   66.8592   -0.3450 O.3      29      M_B    0.0000
    231 H         119.8377   68.5034    0.9091 H        29      M_B    0.0000
    232 H         120.3278   68.5857   -0.7892 H        29      M_B    0.0000
    233 H         122.8039   68.5523    0.5099 H        29      M_B    0.0000
    234 H         121.7749   67.5770    1.5956 H        29      M_B    0.0000
    235 C         122.5894   65.7484    0.2537 C.3      30      M_B    0.0000
    236 C         124.0030   65.5252   -0.2689 C.3      30      M_B    0.0000
    237 O         124.3600   64.1605   -0.0542 O.3      30      M_B    0.0000
    238 H         122.6304   65.9189    1.3354 H        30      M_B    0.0000
    239 H         121.9779   64.8556    0.0805 H        30      M_B    0.0000
    240 H         124.0783   65.7702   -1.3368 H        30      M_B    0.0000
    241 H         124.6811   66.1830    0.2926 H        30      M_B    0.0000
    242 C         125.7388   64.0429    0.2244 C.3      31      M_B    0.0000
    243 C         126.3640   62.8078   -0.4123 C.3      31      M_B    0.0000
    244 O         126.6472   61.8578    0.6138 O.3      31      M_B    0.0000
    245 H         126.2436   64.9372   -0.1582 H        31      M_B    0.0000
    246 H         125.8807   64.0198    1.3108 H        31      M_B    0.0000
    247 H         125.6967   62.3633   -1.1628 H        31      M_B    0.0000
    248 H         127.2962   63.1150   -0.9068 H        31      M_B    0.0000
    249 C         127.0102   60.6131    0.0555 C.3      32      M_B    0.0000
    250 C         127.4008   59.5866    1.1116 C.3      32      M_B    0.0000
    251 O         128.1234   58.5314    0.4788 O.3      32      M_B    0.0000
    252 H         126.1566   60.2315   -0.5161 H        32      M_B    0.0000
    253 H         127.8384   60.7665   -0.6457 H        32      M_B    0.0000
    254 H         128.0126   60.0397    1.9031 H        32      M_B    0.0000
    255 H         126.4782   59.1927    1.5607 H        32      M_B    0.0000
    256 C         129.4662   58.9073    0.2595 C.3      33      M_B    0.0000
    257 C         130.2382   57.8796   -0.5586 C.3      33      M_B    0.0000
    258 O         130.8522   56.9516    0.3345 O.3      33      M_B    0.0000
    259 H         129.4717   59.8654   -0.2724 H        33      M_B    0.0000
    260 H         129.9544   59.0618    1.2284 H        33      M_B    0.0000
    261 H         129.5793   57.3485   -1.2585 H        33      M_B    0.0000
    262 H         131.0084   58.4120   -1.1341 H        33      M_B    0.0000
    263 C         131.9799   56.3515   -0.2664 C.3      34      M_B    0.0000
    264 C         131.7033   54.9335   -0.7503 C.3      34      M_B    0.0000
    265 O         132.5749   54.0373   -0.0627 O.3      34      M_B    0.0000
    266 H         132.2826   56.9684   -1.1201 H        34      M_B    0.0000
    267 H         132.8067   56.3500    0.4529 H        34      M_B    0.0000
    268 H         130.6571   54.6483   -0.5766 H        34      M_B    0.0000
    269 H         131.9042   54.8974   -1.8303 H        34      M_B    0.0000
    270 C         132.0506   52.7267   -0.0701 C.3      35      M_B    0.0000
    271 C         133.0141   51.7046    0.5201 C.3      35      M_B    0.0000
    272 O         133.4855   50.8608   -0.5295 O.3      35      M_B    0.0000
    273 H         131.1240   52.7246    0.5151 H        35      M_B    0.0000
    274 H         131.7944   52.4527   -1.0998 H        35      M_B    0.0000
    275 H         133.8615   52.1945    1.0182 H        35      M_B    0.0000
    276 H         132.4650   51.1086    1.2626 H        35      M_B    0.0000
    277 C         134.2340   49.7842   -0.0067 C.3      36      M_B    0.0000
    278 C         135.7359   50.0372   -0.0488 C.3      36      M_B    0.0000
    279 O         136.4120   48.7808   -0.0378 O.3      36      M_B    0.0000
    280 H         133.9268   49.6258    1.0332 H        36      M_B    0.0000
    281 H         133.9888   48.8756   -0.5682 H        36      M_B    0.0000
    282 H         136.0204   50.6097   -0.9418 H        36      M_B    0.0000
    283 H         136.0083   50.6175    0.8439 H        36      M_B    0.0000
    284 C         137.7805   48.9527    0.2628 C.3      37      M_B    0.0000
    285 C         138.6644   47.9036   -0.4001 C.3      37      M_B    0.0000
    286 O         139.3976   47.2167    0.6130 O.3      37      M_B    0.0000
    287 H         138.0851   49.9472   -0.0822 H        37      M_B    0.0000
    288 H         137.9113   48.9233    1.3505 H        37      M_B    0.0000
    289 H         138.0684   47.1888   -0.9833 H        37      M_B    0.0000
    290 H         139.3569   48.4216   -1.0784 H        37      M_B    0.0000
    291 C         139.7142   45.9052    0.1979 C.3      38      M_B    0.0000
    292 C         141.1110   45.4737    0.6272 C.3      38      M_B    0.0000
    293 O         141.6789   44.6690   -0.4052 O.3      38      M_B    0.0000
    294 H         138.9781   45.2203    0.6339 H        38      M_B    0.0000
    295 H         139.6195   45.8453   -0.8923 H        38      M_B    0.0000
    296 H         141.7546   46.3412    0.8251 H        38      M_B    0.0000
    297 H         141.0165   44.8864    1.5514 H        38      M_B    0.0000
    298 C         142.5937   43.7385    0.1332 C.3      39      M_B    0.0000
    299 C         144.0372   44.2193    0.0527 C.3      39      M_B    0.0000
    300 O         144.8961   43.0812   -0.0031 O.3      39      M_B    0.0000
    301 H         142.3313   43.5678    1.1834 H        39      M_B    0.0000
    302 H         142.4836   42.7854   -0.3965 H        39      M_B    0.0000
    303 H         144.1985   44.8559   -0.8276 H        39      M_B    0.0000
    304 H         144.2510   44.8066    0.9567 H        39      M_B    0.0000
    305 C         146.1403   43.3646    0.6003 C.3      40      M_B    0.0000
    306 C         147.3188   42.8274   -0.2022 C.3      40      M_B    0.0000
    307 O         148.2245   42.1816    0.6914 O.3      40      M_B    0.0000
    308 H         146.2367   44.4522    0.6933 H        40      M_B    0.0000
    309 H         146.1488   42.9421    1.6115 H        40      M_B    0.0000
    310 H         146.9876   42.1226   -0.9766 H        40      M_B    0.0000
    311 H         147.8152   43.6787   -0.6889 H        40      M_B    0.0000
    312 C         149.2074   41.4653   -0.0251 C.3      41      M_B    0.0000
    313 C         150.4811   41.2472    0.7821 C.3      41      M_B    0.0000
    314 O         151.5696   41.0624   -0.1218 O.3      41      M_B    0.0000
    315 H         148.7882   40.4915   -0.3024 H        41      M_B    0.0000
    316 H         149.4357   42.0053   -0.9511 H        41      M_B    0.0000
    317 H         150.6842   42.0975    1.4468 H        41      M_B    0.0000
    318 H         150.3452   40.3450    1.3949 H        41      M_B    0.0000
    319 C         152.6879   40.5201    0.5475 C.3      42      M_B    0.0000
    320 C         154.0090   41.0753    0.0300 C.3      42      M_B    0.0000
    321 O         155.0237   40.0896    0.2158 O.3      42      M_B    0.0000
    322 H         152.5952   40.7528    1.6144 H        42      M_B    0.0000
    323 H         152.6701   39.4294    0.4421 H        42      M_B    0.0000
    324 H         153.9398   41.3487   -1.0314 H        42      M_B    0.0000
    325 H         154.2504   41.9763    0.6113 H        42      M_B    0.0000
    326 C         156.2480   40.5228   -0.3375 C.3      43      M_B    0.0000
    327 C         157.4015   39.5778   -0.0250 C.3      43      M_B    0.0000
    328 O         158.6215   40.3168   -0.0624 O.3      43      M_B    0.0000
    329 H         156.1274   40.5932   -1.4245 H        43      M_B    0.0000
    330 H         156.4715   41.5278    0.0382 H        43      M_B    0.0000
    331 H         157.2772   39.1064    0.9591 H        43      M_B    0.0000
    332 H         157.4153   38.7920   -0.7934 H        43      M_B    0.0000
    333 C         159.6627   39.5934    0.5583 C.3      44      M_B    0.0000
    334 C         160.9992   40.3230    0.5035 C.3      44      M_B    0.0000
    335 O         162.0103   39.3967    0.1090 O.3      44      M_B    0.0000
    336 H         159.3880   39.4278    1.6062 H        44      M_B    0.0000
    337 H         159.7487   38.6122    0.0778 H        44      M_B    0.0000
    338 H         160.9664   41.1661   -0.1995 H        44      M_B    0.0000
    339 H         161.2168   40.7102    1.5088 H        44      M_B    0.0000
    340 C         161.7533   38.8987   -1.1866 C.3      45      M_B    0.0000
    341 C         163.0211   38.7347   -2.0155 C.3      45      M_B    0.0000
    342 O         163.3341   39.9860   -2.6254 O.3      45      M_B    0.0000
    343 H         161.2614   37.9244   -1.0883 H        45      M_B    0.0000
    344 H         161.0555   39.5741   -1.6945 H        45      M_B    0.0000
    345 H         163.8630   38.3968   -1.3965 H        45      M_B    0.0000
    346 H         162.8263   37.9787   -2.7891 H        45      M_B    0.0000
    347 C         162.8420   41.0571   -1.8487 C.3      46      M_B    0.0000
    348 C         163.9526   41.8549   -1.1768 C.3      46      M_B    0.0000
    349 O         164.4687   41.0924   -0.0869 O.3      46      M_B    0.0000
    350 H         162.2701   41.7225   -2.5053 H        46      M_B    0.0000
    351 H         162.1527   40.6611   -1.0943 H        46      M_B    0.0000
    352 H         164.7582   42.0933   -1.8841 H        46      M_B    0.0000
    353 H         163.5197   42.7944   -0.8055 H        46      M_B    0.0000
    354 C         165.6549   41.6731    0.4114 C.3      47      M_B    0.0000
    355 C         166.8175   41.5676   -0.5677 C.3      47      M_B    0.0000
    356 O         168.0389   41.7182    0.1543 O.3      47      M_B    0.0000
    357 H         165.4577   42.7307    0.6202 H        47      M_B    0.0000
    358 H         165.9156   41.1897    1.3598 H        47      M_B    0.0000
    359 H         166.8092   40.6050   -1.0964 H        47      M_B    0.0000
    360 H         166.7156   42.3761   -1.3052 H        47      M_B    0.0000
    361 C         169.0841   42.1115   -0.7091 C.3      48      M_B    0.0000
    362 C         170.4529   42.0462   -0.0430 C.3      48      M_B    0.0000
    363 O         171.2176   43.1774   -0.4570 O.3      48      M_B    0.0000
    364 H         169.0779   41.4467   -1.5803 H        48      M_B    0.0000
    365 H         168.8863   43.1288   -1.0655 H        48      M_B    0.0000
    366 H         170.3650   42.0316    1.0516 H        48      M_B    0.0000
    367 H         170.9463   41.1200   -0.3697 H        48      M_B    0.0000
    368 C         172.1498   43.5414    0.5386 C.3      49      M_B    0.0000
    369 C         173.3433   44.3033   -0.0239 C.3      49      M_B    0.0000
    370 O         174.5247   43.8589    0.6414 O.3      49      M_B    0.0000
    371 H         171.6374   44.1716    1.2743 H        49      M_B    0.0000
    372 H         172.4895   42.6363    1.0547 H        49      M_B    0.0000
    373 H         173.4414   44.1503   -1.1070 H        49      M_B    0.0000
    374 H         173.1848   45.3738    0.1682 H        49      M_B    0.0000
    375 C         175.6778   44.2604   -0.0669 C.3      50      M_B    0.0000
    376 C         176.7820   44.7726    0.8494 C.3      50      M_B    0.0000
    377 O         177.7345   45.4871    0.0631 O.3      50      M_B    0.0000
    378 H         176.0517   43.3982   -0.6306 H        50      M_B    0.0000
    379 H         175.3984   45.0349   -0.7901 H        50      M_B    0.0000
    380 H         176.3790   45.4244    1.6361 H        50      M_B    0.0000
    381 H         177.2619   43.9042    1.3222 H        50      M_B    0.0000
    382 C         177.9586   44.8319   -1.1670 C.3      51      M_B    0.0000
    383 C         179.4383   44.6092   -1.4534 C.3      51      M_B    0.0000
    384 O         179.9720   45.7908   -2.0491 O.3      51      M_B    0.0000
    385 H         177.4499   43.8617   -1.1365 H        51      M_B    0.0000
    386 H         177.5034   45.4212   -1.9711 H        51      M_B    0.0000
    387 H         179.9916   44.3675   -0.5360 H        51      M_B    0.0000
    388 H         179.5264   43.7647   -2.1513 H        51      M_B    0.0000
    389 C         180.6065   46.5963   -1.0789 C.3      52      M_B    0.0000
    390 C         182.0753   46.8501   -1.3948 C.3      52      M_B    0.0000
    391 O         182.7322   47.2787   -0.2030 O.3      52      M_B    0.0000
    392 H         180.0795   47.5560   -1.0319 H        52      M_B    0.0000
    393 H         180.5093   46.1149   -0.0992 H        52      M_B    0.0000
    394 H         182.5616   45.9477   -1.7888 H        52      M_B    0.0000
    395 H         182.1276   47.6403   -2.1569 H        52      M_B    0.0000
    396 C         182.1719   48.4850    0.2699 C.3      53      M_B    0.0000
    397 C         182.3849   49.6484   -0.6906 C.3      53      M_B    0.0000
    398 O         183.5232   50.3938   -0.2611 O.3      53      M_B    0.0000
    399 H         181.0964   48.3308    0.4126 H        53      M_B    0.0000
    400 H         182.6071   48.7190    1.2481 H        53      M_B    0.0000
    401 H         182.5327   49.2956   -1.7200 H        53      M_B    0.0000
    402 H         181.4879   50.2828   -0.6605 H        53      M_B    0.0000
    403 C         184.7172   49.7643   -0.6743 C.3      54      M_B    0.0000
    404 C         185.1783   48.6838    0.2959 C.3      54      M_B    0.0000
    405 O         186.5865   48.5075    0.1488 O.3      54      M_B    0.0000
    406 H         184.5443   49.3124   -1.6575 H        54      M_B    0.0000
    407 H         185.4977   50.5249   -0.7903 H        54      M_B    0.0000
    408 H         184.9388   48.9496    1.3342 H        54      M_B    0.0000
    409 H         184.6549   47.7517    0.0407 H        54      M_B    0.0000
    410 C         187.0066   47.3084    0.7639 C.3      55      M_B    0.0000
    411 C         188.4681   47.3483    1.1928 C.3      55      M_B    0.0000
    412 O         189.2459   46.6326    0.2344 O.3      55      M_B    0.0000
    413 H         186.3793   47.1373    1.6460 H        55      M_B    0.0000
    414 H         186.8397   46.4764    0.0704 H        55      M_B    0.0000
    415 H         188.8323   48.3809    1.2773 H        55      M_B    0.0000
    416 H         188.5472   46.8647    2.1765 H        55      M_B    0.0000
    417 C         190.3892   46.0683    0.8402 C.3      56      M_B    0.0000
    418 C         191.6833   46.4742    0.1459 C.3      56      M_B    0.0000
    419 O         192.5771   45.3621    0.1577 O.3      56      M_B    0.0000
    420 H         190.4236   46.4004    1.8840 H        56      M_B    0.0000
    421 H         190.2882   44.9770    0.8414 H        56      M_B    0.0000
    422 H         191.4987   46.7976   -0.8872 H        56      M_B    0.0000
    423 H         192.1208   47.3130    0.7054 H        56      M_B    0.0000
    424 C         193.8896   45.7730   -0.1604 C.3      57      M_B    0.0000
    425 C         194.7010   44.6761   -0.8385 C.3      57      M_B    0.0000
    426 O         195.3150   43.8725    0.1680 O.3      57      M_B    0.0000
    427 H         193.8255   46.6374   -0.8310 H        57      M_B    0.0000
    428 H         194.3913   46.1005    0.7574 H        57      M_B    0.0000
    429 H         194.0690   44.0522   -1.4845 H        57      M_B    0.0000
    430 H         195.4721   45.1564   -1.4571 H        57      M_B    0.0000
    431 C         195.4590   42.5402   -0.2757 C.3      58      M_B    0.0000
    432 C         194.3796   41.6171    0.2757 C.3      58      M_B    0.0000
    433 O         194.8356   40.2688    0.1757 O.3      58      M_B    0.0000
    434 H         195.4088   42.5359   -1.3704 H        58      M_B    0.0000
    435 H         196.4511   42.1751    0.0133 H        58      M_B    0.0000
    436 H         194.1429   41.8576    1.3208 H        58      M_B    0.0000
    437 H         193.4735   41.7525   -0.3314 H        58      M_B    0.0000
    438 C         196.2077   40.2289   -0.1536 C.3      59      M_B    0.0000
    439 C         196.6128   38.9239   -0.8276 C.3      59      M_B    0.0000
    440 O         197.0042   37.9913    0.1790 O.3      59      M_B    0.0000
    441 H         196.4224   41.0632   -0.8309 H        59      M_B    0.0000
    442 H         196.7962   40.3808    0.7584 H        59      M_B    0.0000
    443 H         195.7896   38.5095   -1.4248 H        59      M_B    0.0000
    444 H         197.4610   39.1343   -1.4941 H        59      M_B    0.0000
    445 C         197.0883   36.6870   -0.3543 C.3      60      M_B    0.0000
    446 C         195.9509   35.7868    0.1118 C.3      60      M_B    0.0000
    447 O         196.3780   34.4281    0.0255 O.3      60      M_B    0.0000
    448 H         197.0614   36.7609   -1.4473 H        60      M_B    0.0000
    449 H         198.0538   36.2506   -0.0740 H        60      M_B    0.0000
    450 H         195.6507   36.0221    1.1417 H        60      M_B    0.0000
    451 H         195.0915   35.9528   -0.5529 H        60      M_B    0.0000
    452 O         196.1129   31.4164   -1.6419 O.2      61      M_C    0.0000
    453 C         196.3059   31.4074   -0.4293 C.2      61      M_C    0.0000
    454 C         195.5090   32.3019    0.5098 C.3      61      M_C    0.0000
    455 O         195.2690   33.5624   -0.0902 O.3      61      M_C    0.0000
    456 N         197.2042   30.5704    0.2029 N.3      61      M_C    0.0000
    457 C         197.0171   29.1307    0.3983 C.3      61      M_C    0.0000
    458 C         195.5670   28.6884    0.0773 C.3      61      M_C    0.0000
    459 C         195.3923   27.1822    0.3369 C.3      61      M_C    0.0000
    460 C         196.3806   26.4010   -0.5482 C.3      61      M_C    0.0000
    461 C         197.8324   26.7962   -0.2045 C.3      61      M_C    0.0000
    462 C         197.9996   28.3082   -0.4693 C.3      61      M_C    0.0000
    463 C         198.0856   26.4534    1.2818 C.3      61      M_C    0.0000
    464 C         197.1275   27.2884    2.1638 C.3      61      M_C    0.0000
    465 C         195.6800   26.8878    1.8183 C.3      61      M_C    0.0000
    466 C         197.2897   28.7977    1.8890 C.3      61      M_C    0.0000
    467 H         196.0181   32.3619    1.4811 H        61      M_C    0.0000
    468 H         194.5349   31.8290    0.6792 H        61      M_C    0.0000
    469 H         198.1482   30.9365    0.3170 H        61      M_C    0.0000
    470 H         194.8543   29.2590    0.6872 H        61      M_C    0.0000
    471 H         195.3111   28.8976   -0.9675 H        61      M_C    0.0000
    472 H         194.3659   26.8842    0.0951 H        61      M_C    0.0000
    473 H         196.2412   25.3229   -0.4014 H        61      M_C    0.0000
    474 H         196.1775   26.6050   -1.6068 H        61      M_C    0.0000
    475 H         198.5206   26.2371   -0.8505 H        61      M_C    0.0000
    476 H         197.8282   28.5013   -1.5356 H        61      M_C    0.0000
    477 H         199.0323   28.6223   -0.2724 H        61      M_C    0.0000
    478 H         197.8583   25.3890    1.4354 H        61      M_C    0.0000
    479 H         197.3119   27.0907    3.2271 H        61      M_C    0.0000
    480 H         194.9761   27.4392    2.4539 H        61      M_C    0.0000
    481 H         195.5252   25.8217    2.0255 H        61      M_C    0.0000
    482 H         198.2967   29.1293    2.1732 H        61      M_C    0.0000
    483 H         196.5995   29.3630    2.5302 H        61      M_C    0.0000
    484 H         199.1294   26.5828    1.5680 H        61      M_C    0.0000
    485 H          39.8992   63.0211   -0.4556 H         0      M_A    0.0000
@<TRIPOS>BOND
     1     1     2      1
     2     1     6      1
     3     1    10      1
     4     1    15      1
     5     2     3      1
     6     2    16      1
     7     2    17      1
     8     3     4      1
     9     3     9      1
    10     3    18      1
    11     4     5      1
    12     4    19      1
    13     4    20      1
    14     5     6      1
    15     5     7      1
    16     5    21      1
    17     6    22      1
    18     6    23      1
    19     7     8      1
    20     7    24      1
    21     7   485      H
    22     8     9      1
    23     8    10      1
    24     8    25      1
    25     9    26      1
    26     9    27      1
    27    10    11      1
    28    10    28      1
    29    11    12      1
    30    11    29      1
    31    12    13      2
    32    12    14      1
    33    14    30      1
    34    14    31      1
    35    14    32      1
    36    32    33      1
    37    32    35      1
    38    32    36      1
    39    33    34      1
    40    33    37      1
    41    33    38      1
    42    34    39      1
    43    39    40      1
    44    39    42      1
    45    39    43      1
    46    40    41      1
    47    40    44      1
    48    40    45      1
    49    41    46      1
    50    46    47      1
    51    46    49      1
    52    46    50      1
    53    47    48      1
    54    47    51      1
    55    47    52      1
    56    48    53      1
    57    53    54      1
    58    53    56      1
    59    53    57      1
    60    54    55      1
    61    54    58      1
    62    54    59      1
    63    55    60      1
    64    60    61      1
    65    60    63      1
    66    60    64      1
    67    61    62      1
    68    61    65      1
    69    61    66      1
    70    62    67      1
    71    67    68      1
    72    67    70      1
    73    67    71      1
    74    68    69      1
    75    68    72      1
    76    68    73      1
    77    69    74      1
    78    74    75      1
    79    74    77      1
    80    74    78      1
    81    75    76      1
    82    75    79      1
    83    75    80      1
    84    76    81      1
    85    81    82      1
    86    81    84      1
    87    81    85      1
    88    82    83      1
    89    82    86      1
    90    82    87      1
    91    83    88      1
    92    88    89      1
    93    88    91      1
    94    88    92      1
    95    89    90      1
    96    89    93      1
    97    89    94      1
    98    90    95      1
    99    95    96      1
   100    95    98      1
   101    95    99      1
   102    96    97      1
   103    96   100      1
   104    96   101      1
   105    97   102      1
   106   102   103      1
   107   102   105      1
   108   102   106      1
   109   103   104      1
   110   103   107      1
   111   103   108      1
   112   104   109      1
   113   109   110      1
   114   109   112      1
   115   109   113      1
   116   110   111      1
   117   110   114      1
   118   110   115      1
   119   111   116      1
   120   116   117      1
   121   116   119      1
   122   116   120      1
   123   117   118      1
   124   117   121      1
   125   117   122      1
   126   118   123      1
   127   123   124      1
   128   123   126      1
   129   123   127      1
   130   124   125      1
   131   124   128      1
   132   124   129      1
   133   125   130      1
   134   130   131      1
   135   130   133      1
   136   130   134      1
   137   131   132      1
   138   131   135      1
   139   131   136      1
   140   132   137      1
   141   137   138      1
   142   137   140      1
   143   137   141      1
   144   138   139      1
   145   138   142      1
   146   138   143      1
   147   139   144      1
   148   144   145      1
   149   144   147      1
   150   144   148      1
   151   145   146      1
   152   145   149      1
   153   145   150      1
   154   146   151      1
   155   151   152      1
   156   151   154      1
   157   151   155      1
   158   152   153      1
   159   152   156      1
   160   152   157      1
   161   153   158      1
   162   158   159      1
   163   158   161      1
   164   158   162      1
   165   159   160      1
   166   159   163      1
   167   159   164      1
   168   160   165      1
   169   165   166      1
   170   165   168      1
   171   165   169      1
   172   166   167      1
   173   166   170      1
   174   166   171      1
   175   167   172      1
   176   172   173      1
   177   172   175      1
   178   172   176      1
   179   173   174      1
   180   173   177      1
   181   173   178      1
   182   174   179      1
   183   179   180      1
   184   179   182      1
   185   179   183      1
   186   180   181      1
   187   180   184      1
   188   180   185      1
   189   181   186      1
   190   186   187      1
   191   186   189      1
   192   186   190      1
   193   187   188      1
   194   187   191      1
   195   187   192      1
   196   188   193      1
   197   193   194      1
   198   193   196      1
   199   193   197      1
   200   194   195      1
   201   194   198      1
   202   194   199      1
   203   195   200      1
   204   200   201      1
   205   200   203      1
   206   200   204      1
   207   201   202      1
   208   201   205      1
   209   201   206      1
   210   202   207      1
   211   207   208      1
   212   207   210      1
   213   207   211      1
   214   208   209      1
   215   208   212      1
   216   208   213      1
   217   209   214      1
   218   214   215      1
   219   214   217      1
   220   214   218      1
   221   215   216      1
   222   215   219      1
   223   215   220      1
   224   216   221      1
   225   221   222      1
   226   221   224      1
   227   221   225      1
   228   222   223      1
   229   222   226      1
   230   222   227      1
   231   223   228      1
   232   228   229      1
   233   228   231      1
   234   228   232      1
   235   229   230      1
   236   229   233      1
   237   229   234      1
   238   230   235      1
   239   235   236      1
   240   235   238      1
   241   235   239      1
   242   236   237      1
   243   236   240      1
   244   236   241      1
   245   237   242      1
   246   242   243      1
   247   242   245      1
   248   242   246      1
   249   243   244      1
   250   243   247      1
   251   243   248      1
   252   244   249      1
   253   249   250      1
   254   249   252      1
   255   249   253      1
   256   250   251      1
   257   250   254      1
   258   250   255      1
   259   251   256      1
   260   256   257      1
   261   256   259      1
   262   256   260      1
   263   257   258      1
   264   257   261      1
   265   257   262      1
   266   258   263      1
   267   263   264      1
   268   263   266      1
   269   263   267      1
   270   264   265      1
   271   264   268      1
   272   264   269      1
   273   265   270      1
   274   270   271      1
   275   270   273      1
   276   270   274      1
   277   271   272      1
   278   271   275      1
   279   271   276      1
   280   272   277      1
   281   277   278      1
   282   277   280      1
   283   277   281      1
   284   278   279      1
   285   278   282      1
   286   278   283      1
   287   279   284      1
   288   284   285      1
   289   284   287      1
   290   284   288      1
   291   285   286      1
   292   285   289      1
   293   285   290      1
   294   286   291      1
   295   291   292      1
   296   291   294      1
   297   291   295      1
   298   292   293      1
   299   292   296      1
   300   292   297      1
   301   293   298      1
   302   298   299      1
   303   298   301      1
   304   298   302      1
   305   299   300      1
   306   299   303      1
   307   299   304      1
   308   300   305      1
   309   305   306      1
   310   305   308      1
   311   305   309      1
   312   306   307      1
   313   306   310      1
   314   306   311      1
   315   307   312      1
   316   312   313      1
   317   312   315      1
   318   312   316      1
   319   313   314      1
   320   313   317      1
   321   313   318      1
   322   314   319      1
   323   319   320      1
   324   319   322      1
   325   319   323      1
   326   320   321      1
   327   320   324      1
   328   320   325      1
   329   321   326      1
   330   326   327      1
   331   326   329      1
   332   326   330      1
   333   327   328      1
   334   327   331      1
   335   327   332      1
   336   328   333      1
   337   333   334      1
   338   333   336      1
   339   333   337      1
   340   334   335      1
   341   334   338      1
   342   334   339      1
   343   335   340      1
   344   340   341      1
   345   340   343      1
   346   340   344      1
   347   341   342      1
   348   341   345      1
   349   341   346      1
   350   342   347      1
   351   347   348      1
   352   347   350      1
   353   347   351      1
   354   348   349      1
   355   348   352      1
   356   348   353      1
   357   349   354      1
   358   354   355      1
   359   354   357      1
   360   354   358      1
   361   355   356      1
   362   355   359      1
   363   355   360      1
   364   356   361      1
   365   361   362      1
   366   361   364      1
   367   361   365      1
   368   362   363      1
   369   362   366      1
   370   362   367      1
   371   363   368      1
   372   368   369      1
   373   368   371      1
   374   368   372      1
   375   369   370      1
   376   369   373      1
   377   369   374      1
   378   370   375      1
   379   375   376      1
   380   375   378      1
   381   375   379      1
   382   376   377      1
   383   376   380      1
   384   376   381      1
   385   377   382      1
   386   382   383      1
   387   382   385      1
   388   382   386      1
   389   383   384      1
   390   383   387      1
   391   383   388      1
   392   384   389      1
   393   389   390      1
   394   389   392      1
   395   389   393      1
   396   390   391      1
   397   390   394      1
   398   390   395      1
   399   391   396      1
   400   396   397      1
   401   396   399      1
   402   396   400      1
   403   397   398      1
   404   397   401      1
   405   397   402      1
   406   398   403      1
   407   403   404      1
   408   403   406      1
   409   403   407      1
   410   404   405      1
   411   404   408      1
   412   404   409      1
   413   405   410      1
   414   410   411      1
   415   410   413      1
   416   410   414      1
   417   411   412      1
   418   411   415      1
   419   411   416      1
   420   412   417      1
   421   417   418      1
   422   417   420      1
   423   417   421      1
   424   418   419      1
   425   418   422      1
   426   418   423      1
   427   419   424      1
   428   424   425      1
   429   424   427      1
   430   424   428      1
   431   425   426      1
   432   425   429      1
   433   425   430      1
   434   426   431      1
   435   431   432      1
   436   431   434      1
   437   431   435      1
   438   432   433      1
   439   432   436      1
   440   432   437      1
   441   433   438      1
   442   438   439      1
   443   438   441      1
   444   438   442      1
   445   439   440      1
   446   439   443      1
   447   439   444      1
   448   440   445      1
   449   445   446      1
   450   445   448      1
   451   445   449      1
   452   446   447      1
   453   446   450      1
   454   446   451      1
   455   447   455      1
   456   452   453      2
   457   453   454      1
   458   453   456      1
   459   454   455      1
   460   454   467      1
   461   454   468      1
   462   456   457      1
   463   456   469      1
   464   457   458      1
   465   457   462      1
   466   457   466      1
   467   458   459      1
   468   458   470      1
   469   458   471      1
   470   459   460      1
   471   459   465      1
   472   459   472      1
   473   460   461      1
   474   460   473      1
   475   460   474      1
   476   461   462      1
   477   461   463      1
   478   461   475      1
   479   462   476      1
   480   462   477      1
   481   463   464      1
   482   463   478      1
   483   463   484      H
   484   464   465      1
   485   464   466      1
   486   464   479      1
   487   465   480      1
   488   465   481      1
   489   466   482      1
   490   466   483      1
