###
### Created by PolyChef-cpp17 on Mon May 12 10:39:09 2025
###

@<TRIPOS>MOLECULE
NO_INFO
1759 1758 1 0 0
SMALL
USER_CHARGES


@<TRIPOS>ATOM
      1 C         209.3560  218.6028   16.3675 C.3       0      M_A    0.0000
      2 C         208.2580  218.3335   15.3429 C.3       0      M_A    0.0000
      3 O         207.1135  217.7601   15.9747 O.3       0      M_A    0.0000
      4 H         209.0503  218.2803   17.3685 H         0      M_A    0.0000
      5 H         210.2472  218.0275   16.0917 H         0      M_A    0.0000
      6 H         208.6384  217.6853   14.5404 H         0      M_A    0.0000
      7 H         207.9348  219.2642   14.8600 H         0      M_A    0.0000
      8 C         206.0204  217.6720   15.0835 C.3       1      M_A    0.0000
      9 C         204.7800  218.3766   15.6248 C.3       1      M_A    0.0000
     10 O         204.1123  217.5517   16.5794 O.3       1      M_A    0.0000
     11 H         205.8154  216.6170   14.8727 H         1      M_A    0.0000
     12 H         206.3151  218.1471   14.1408 H         1      M_A    0.0000
     13 H         204.1102  218.6543   14.7982 H         1      M_A    0.0000
     14 H         205.0494  219.3123   16.1305 H         1      M_A    0.0000
     15 C         204.8550  217.4406   17.7764 C.3       2      M_A    0.0000
     16 C         204.0769  217.9534   18.9846 C.3       2      M_A    0.0000
     17 O         204.6675  219.1514   19.4885 O.3       2      M_A    0.0000
     18 H         205.8028  217.9769   17.6599 H         2      M_A    0.0000
     19 H         205.0904  216.3812   17.9299 H         2      M_A    0.0000
     20 H         204.0251  217.1761   19.7605 H         2      M_A    0.0000
     21 H         203.0399  218.1873   18.7132 H         2      M_A    0.0000
     22 C         203.8629  219.7440   20.4877 C.3       3      M_A    0.0000
     23 C         203.6856  221.2434   20.2676 C.3       3      M_A    0.0000
     24 O         203.2155  221.8722   21.4599 O.3       3      M_A    0.0000
     25 H         204.3026  219.5379   21.4694 H         3      M_A    0.0000
     26 H         202.8788  219.2624   20.4575 H         3      M_A    0.0000
     27 H         203.0040  221.4252   19.4242 H         3      M_A    0.0000
     28 H         204.6389  221.7165   20.0007 H         3      M_A    0.0000
     29 C         201.9364  222.4432   21.2737 C.3       4      M_A    0.0000
     30 C         201.0388  222.2508   22.4925 C.3       4      M_A    0.0000
     31 O         199.6836  222.0530   22.0898 O.3       4      M_A    0.0000
     32 H         201.4806  222.0135   20.3753 H         4      M_A    0.0000
     33 H         202.0690  223.5167   21.0969 H         4      M_A    0.0000
     34 H         201.1326  223.1099   23.1722 H         4      M_A    0.0000
     35 H         201.3427  221.3677   23.0683 H         4      M_A    0.0000
     36 C         198.8335  223.0440   22.6303 C.3       5      M_A    0.0000
     37 C         197.4248  222.9715   22.0486 C.3       5      M_A    0.0000
     38 O         196.9648  224.2737   21.6875 O.3       5      M_A    0.0000
     39 H         199.2807  224.0293   22.4613 H         5      M_A    0.0000
     40 H         198.7784  222.8864   23.7136 H         5      M_A    0.0000
     41 H         196.7428  222.4909   22.7647 H         5      M_A    0.0000
     42 H         197.4056  222.3533   21.1424 H         5      M_A    0.0000
     43 C         197.4372  225.2567   22.5861 C.3       6      M_A    0.0000
     44 C         196.4450  226.4034   22.7562 C.3       6      M_A    0.0000
     45 O         196.9920  227.6186   22.2443 O.3       6      M_A    0.0000
     46 H         198.4085  225.6229   22.2369 H         6      M_A    0.0000
     47 H         197.5942  224.7766   23.5588 H         6      M_A    0.0000
     48 H         196.1618  226.5065   23.8135 H         6      M_A    0.0000
     49 H         195.5165  226.2039   22.2066 H         6      M_A    0.0000
     50 C         196.0000  228.6158   22.1092 C.3       7      M_A    0.0000
     51 C         196.3381  229.8734   22.9044 C.3       7      M_A    0.0000
     52 O         195.3808  230.0815   23.9428 O.3       7      M_A    0.0000
     53 H         195.0334  228.2022   22.4159 H         7      M_A    0.0000
     54 H         195.9269  228.8768   21.0472 H         7      M_A    0.0000
     55 H         196.3957  230.7426   22.2336 H         7      M_A    0.0000
     56 H         197.3234  229.7847   23.3790 H         7      M_A    0.0000
     57 C         195.8416  231.0235   24.8899 C.3       8      M_A    0.0000
     58 C         194.8238  231.2660   26.0005 C.3       8      M_A    0.0000
     59 O         194.3821  232.6234   25.9867 O.3       8      M_A    0.0000
     60 H         196.0929  231.9559   24.3734 H         8      M_A    0.0000
     61 H         196.7639  230.6315   25.3338 H         8      M_A    0.0000
     62 H         195.2541  230.9954   26.9754 H         8      M_A    0.0000
     63 H         193.9388  230.6312   25.8674 H         8      M_A    0.0000
     64 C         193.0712  232.7460   26.4999 C.3       9      M_A    0.0000
     65 C         192.6599  234.2040   26.6823 C.3       9      M_A    0.0000
     66 O         191.7411  234.3329   27.7672 O.3       9      M_A    0.0000
     67 H         193.0041  232.1953   27.4443 H         9      M_A    0.0000
     68 H         192.3853  232.2703   25.7895 H         9      M_A    0.0000
     69 H         192.2337  234.5977   25.7484 H         9      M_A    0.0000
     70 H         193.5301  234.8315   26.9124 H         9      M_A    0.0000
     71 C         191.9178  235.5563   28.4520 C.3      10      M_A    0.0000
     72 C         190.7890  236.5424   28.1661 C.3      10      M_A    0.0000
     73 O         191.2824  237.6736   27.4486 O.3      10      M_A    0.0000
     74 H         192.8908  235.9800   28.1814 H        10      M_A    0.0000
     75 H         191.9371  235.3413   29.5265 H        10      M_A    0.0000
     76 H         190.3028  236.8452   29.1047 H        10      M_A    0.0000
     77 H         190.0084  236.0779   27.5507 H        10      M_A    0.0000
     78 C         190.4030  238.7749   27.5510 C.3      11      M_A    0.0000
     79 C         190.7404  239.8743   26.5481 C.3      11      M_A    0.0000
     80 O         190.4858  241.1610   27.1116 O.3      11      M_A    0.0000
     81 H         190.4253  239.1559   28.5776 H        11      M_A    0.0000
     82 H         189.3870  238.4144   27.3533 H        11      M_A    0.0000
     83 H         190.1738  239.7261   25.6176 H        11      M_A    0.0000
     84 H         191.8016  239.8410   26.2714 H        11      M_A    0.0000
     85 C         189.4781  241.8480   26.3978 C.3      12      M_A    0.0000
     86 C         189.4360  243.3322   26.7492 C.3      12      M_A    0.0000
     87 O         188.3576  243.6043   27.6441 O.3      12      M_A    0.0000
     88 H         188.5127  241.3683   26.5916 H        12      M_A    0.0000
     89 H         189.6916  241.7428   25.3280 H        12      M_A    0.0000
     90 H         189.3584  243.9368   25.8341 H        12      M_A    0.0000
     91 H         190.3626  243.6442   27.2469 H        12      M_A    0.0000
     92 C         188.4973  244.8722   28.2521 C.3      13      M_A    0.0000
     93 C         189.6231  244.8942   29.2818 C.3      13      M_A    0.0000
     94 O         189.1370  245.3476   30.5451 O.3      13      M_A    0.0000
     95 H         187.5420  245.1587   28.7047 H        13      M_A    0.0000
     96 H         188.7227  245.6005   27.4647 H        13      M_A    0.0000
     97 H         190.4524  245.5213   28.9240 H        13      M_A    0.0000
     98 H         190.0385  243.8897   29.4308 H        13      M_A    0.0000
     99 C         188.0803  246.2730   30.3909 C.3      14      M_A    0.0000
    100 C         187.4301  246.6294   31.7244 C.3      14      M_A    0.0000
    101 O         186.0074  246.5919   31.6133 O.3      14      M_A    0.0000
    102 H         187.3456  245.8629   29.6899 H        14      M_A    0.0000
    103 H         188.4930  247.1842   29.9430 H        14      M_A    0.0000
    104 H         187.7787  247.6150   32.0652 H        14      M_A    0.0000
    105 H         187.7176  245.9141   32.5050 H        14      M_A    0.0000
    106 C         185.3864  247.2551   32.6956 C.3      15      M_A    0.0000
    107 C         183.8661  247.2662   32.5662 C.3      15      M_A    0.0000
    108 O         183.3381  248.5275   32.9765 O.3      15      M_A    0.0000
    109 H         185.7845  248.2729   32.7669 H        15      M_A    0.0000
    110 H         185.6599  246.7270   33.6162 H        15      M_A    0.0000
    111 H         183.4296  246.4416   33.1480 H        15      M_A    0.0000
    112 H         183.5595  247.1047   31.5252 H        15      M_A    0.0000
    113 C         181.9322  248.5689   32.8396 C.3      16      M_A    0.0000
    114 C         181.4956  248.5078   31.3789 C.3      16      M_A    0.0000
    115 O         180.2021  249.0900   31.2184 O.3      16      M_A    0.0000
    116 H         181.5520  249.4722   33.3284 H        16      M_A    0.0000
    117 H         181.5164  247.7048   33.3704 H        16      M_A    0.0000
    118 H         181.5135  247.4684   31.0206 H        16      M_A    0.0000
    119 H         182.1891  249.0666   30.7381 H        16      M_A    0.0000
    120 C         179.3172  248.6734   32.2384 C.3      17      M_A    0.0000
    121 C         177.8809  249.1108   31.9664 C.3      17      M_A    0.0000
    122 O         177.3570  249.8304   33.0825 O.3      17      M_A    0.0000
    123 H         179.6727  249.0595   33.1996 H        17      M_A    0.0000
    124 H         179.3512  247.5790   32.2878 H        17      M_A    0.0000
    125 H         177.2575  248.2378   31.7252 H        17      M_A    0.0000
    126 H         177.8312  249.7751   31.0946 H        17      M_A    0.0000
    127 C         176.4026  250.7904   32.6771 C.3      18      M_A    0.0000
    128 C         175.9656  251.6883   33.8308 C.3      18      M_A    0.0000
    129 O         174.5471  251.6488   33.9862 O.3      18      M_A    0.0000
    130 H         175.5454  250.2756   32.2303 H        18      M_A    0.0000
    131 H         176.8593  251.4114   31.8979 H        18      M_A    0.0000
    132 H         176.3216  252.7157   33.6679 H        18      M_A    0.0000
    133 H         176.4092  251.3550   34.7774 H        18      M_A    0.0000
    134 C         174.1519  252.1340   35.2531 C.3      19      M_A    0.0000
    135 C         172.6991  252.6005   35.2616 C.3      19      M_A    0.0000
    136 O         172.4568  253.4629   36.3731 O.3      19      M_A    0.0000
    137 H         174.8281  252.9415   35.5534 H        19      M_A    0.0000
    138 H         174.2668  251.3191   35.9770 H        19      M_A    0.0000
    139 H         172.0223  251.7341   35.2727 H        19      M_A    0.0000
    140 H         172.4626  253.1645   34.3506 H        19      M_A    0.0000
    141 C         173.2774  253.1300   37.4744 C.3      20      M_A    0.0000
    142 C         172.5150  252.3546   38.5448 C.3      20      M_A    0.0000
    143 O         171.8933  253.2514   39.4651 O.3      20      M_A    0.0000
    144 H         173.7131  254.0469   37.8854 H        20      M_A    0.0000
    145 H         174.1010  252.5082   37.1052 H        20      M_A    0.0000
    146 H         173.1899  251.6565   39.0607 H        20      M_A    0.0000
    147 H         171.7226  251.7424   38.0965 H        20      M_A    0.0000
    148 C         171.0341  252.5670   40.3539 C.3      21      M_A    0.0000
    149 C         169.5637  252.8616   40.0721 C.3      21      M_A    0.0000
    150 O         169.0600  253.8249   40.9975 O.3      21      M_A    0.0000
    151 H         171.3001  252.8314   41.3829 H        21      M_A    0.0000
    152 H         171.2100  251.4921   40.2319 H        21      M_A    0.0000
    153 H         168.9775  251.9320   40.1039 H        21      M_A    0.0000
    154 H         169.4322  253.2744   39.0641 H        21      M_A    0.0000
    155 C         167.6503  253.7743   41.0807 C.3      22      M_A    0.0000
    156 C         167.0434  255.1419   41.3802 C.3      22      M_A    0.0000
    157 O         166.2464  255.0874   42.5633 O.3      22      M_A    0.0000
    158 H         167.3632  253.0395   41.8404 H        22      M_A    0.0000
    159 H         167.2683  253.4205   40.1163 H        22      M_A    0.0000
    160 H         166.4574  255.4939   40.5191 H        22      M_A    0.0000
    161 H         167.8273  255.8913   41.5465 H        22      M_A    0.0000
    162 C         165.4585  253.9150   42.6026 C.3      23      M_A    0.0000
    163 C         164.1587  254.1224   43.3744 C.3      23      M_A    0.0000
    164 O         164.3640  253.8996   44.7694 O.3      23      M_A    0.0000
    165 H         166.0499  253.1014   43.0357 H        23      M_A    0.0000
    166 H         165.2173  253.6364   41.5703 H        23      M_A    0.0000
    167 H         163.3719  253.4657   42.9761 H        23      M_A    0.0000
    168 H         163.7916  255.1496   43.2563 H        23      M_A    0.0000
    169 C         163.1385  253.7268   45.4514 C.3      24      M_A    0.0000
    170 C         162.9695  254.7275   46.5908 C.3      24      M_A    0.0000
    171 O         163.1756  254.0901   47.8514 O.3      24      M_A    0.0000
    172 H         163.0755  252.6965   45.8176 H        24      M_A    0.0000
    173 H         162.3273  253.8719   44.7289 H        24      M_A    0.0000
    174 H         161.9773  255.1983   46.5383 H        24      M_A    0.0000
    175 H         163.7012  255.5411   46.5106 H        24      M_A    0.0000
    176 C         162.6667  254.8695   48.9145 C.3      25      M_A    0.0000
    177 C         163.2509  254.4545   50.2616 C.3      25      M_A    0.0000
    178 O         162.2323  254.4257   51.2614 O.3      25      M_A    0.0000
    179 H         161.5738  254.7981   48.9188 H        25      M_A    0.0000
    180 H         162.9296  255.9158   48.7212 H        25      M_A    0.0000
    181 H         164.0699  255.1313   50.5447 H        25      M_A    0.0000
    182 H         163.6867  253.4491   50.2075 H        25      M_A    0.0000
    183 C         162.7263  253.9297   52.4889 C.3      26      M_A    0.0000
    184 C         162.0582  254.5961   53.6879 C.3      26      M_A    0.0000
    185 O         162.9957  254.7706   54.7502 O.3      26      M_A    0.0000
    186 H         163.8130  254.0636   52.5170 H        26      M_A    0.0000
    187 H         162.5240  252.8531   52.5233 H        26      M_A    0.0000
    188 H         161.1892  254.0067   54.0142 H        26      M_A    0.0000
    189 H         161.6746  255.5890   53.4219 H        26      M_A    0.0000
    190 C         162.5691  254.1182   55.9289 C.3      27      M_A    0.0000
    191 C         163.3358  254.5953   57.1588 C.3      27      M_A    0.0000
    192 O         162.6662  254.1924   58.3534 O.3      27      M_A    0.0000
    193 H         162.6706  253.0359   55.7950 H        27      M_A    0.0000
    194 H         161.5041  254.3364   56.0683 H        27      M_A    0.0000
    195 H         163.4688  255.6862   57.1235 H        27      M_A    0.0000
    196 H         164.3438  254.1627   57.1853 H        27      M_A    0.0000
    197 C         163.2500  254.7816   59.4975 C.3      28      M_A    0.0000
    198 C         162.2733  255.6915   60.2364 C.3      28      M_A    0.0000
    199 O         162.9227  256.8948   60.6466 O.3      28      M_A    0.0000
    200 H         164.1503  255.3285   59.1977 H        28      M_A    0.0000
    201 H         163.5613  253.9745   60.1706 H        28      M_A    0.0000
    202 H         161.8353  255.1611   61.0942 H        28      M_A    0.0000
    203 H         161.4344  255.9753   59.5887 H        28      M_A    0.0000
    204 C         162.5202  257.2833   61.9443 C.3      29      M_A    0.0000
    205 C         161.9967  258.7161   61.9782 C.3      29      M_A    0.0000
    206 O         162.5303  259.4174   63.1012 O.3      29      M_A    0.0000
    207 H         163.3616  257.1534   62.6332 H        29      M_A    0.0000
    208 H         161.7208  256.6060   62.2661 H        29      M_A    0.0000
    209 H         160.8972  258.7181   61.9909 H        29      M_A    0.0000
    210 H         162.2953  259.2646   61.0761 H        29      M_A    0.0000
    211 C         161.6272  260.3943   63.5777 C.3      30      M_A    0.0000
    212 C         162.2157  261.2090   64.7257 C.3      30      M_A    0.0000
    213 O         161.5418  260.9105   65.9482 O.3      30      M_A    0.0000
    214 H         160.6955  259.9033   63.8783 H        30      M_A    0.0000
    215 H         161.3926  261.0699   62.7471 H        30      M_A    0.0000
    216 H         162.1662  262.2826   64.4935 H        30      M_A    0.0000
    217 H         163.2776  260.9738   64.8700 H        30      M_A    0.0000
    218 C         161.7166  261.9403   66.8999 C.3      31      M_A    0.0000
    219 C         162.3369  261.4256   68.1954 C.3      31      M_A    0.0000
    220 O         161.5458  261.8147   69.3182 O.3      31      M_A    0.0000
    221 H         160.7506  262.4210   67.0878 H        31      M_A    0.0000
    222 H         162.3821  262.6936   66.4629 H        31      M_A    0.0000
    223 H         163.3711  261.7866   68.2906 H        31      M_A    0.0000
    224 H         162.3918  260.3298   68.1961 H        31      M_A    0.0000
    225 C         161.6615  260.8878   70.3785 C.3      32      M_A    0.0000
    226 C         161.1759  261.4677   71.7036 C.3      32      M_A    0.0000
    227 O         162.2766  261.9597   72.4680 O.3      32      M_A    0.0000
    228 H         162.7025  260.5552   70.4504 H        32      M_A    0.0000
    229 H         161.0505  260.0127   70.1293 H        32      M_A    0.0000
    230 H         160.6069  260.7113   72.2631 H        32      M_A    0.0000
    231 H         160.4902  262.3078   71.5367 H        32      M_A    0.0000
    232 C         161.9331  263.1363   73.1713 C.3      33      M_A    0.0000
    233 C         161.7153  262.8733   74.6585 C.3      33      M_A    0.0000
    234 O         160.4294  263.3403   75.0662 O.3      33      M_A    0.0000
    235 H         161.0421  263.5790   72.7135 H        33      M_A    0.0000
    236 H         162.7557  263.8511   73.0545 H        33      M_A    0.0000
    237 H         162.5164  263.3417   75.2481 H        33      M_A    0.0000
    238 H         161.7593  261.7990   74.8777 H        33      M_A    0.0000
    239 C         160.5175  264.5854   75.7287 C.3      34      M_A    0.0000
    240 C         159.2587  264.8987   76.5321 C.3      34      M_A    0.0000
    241 O         158.7114  266.1558   76.1348 O.3      34      M_A    0.0000
    242 H         160.7209  265.3690   74.9910 H        34      M_A    0.0000
    243 H         161.3732  264.5436   76.4123 H        34      M_A    0.0000
    244 H         159.4817  264.8818   77.6086 H        34      M_A    0.0000
    245 H         158.4869  264.1369   76.3653 H        34      M_A    0.0000
    246 C         158.0944  266.8175   77.2203 C.3      35      M_A    0.0000
    247 C         157.2302  265.8740   78.0516 C.3      35      M_A    0.0000
    248 O         155.9565  266.4626   78.3142 O.3      35      M_A    0.0000
    249 H         157.5063  267.6589   76.8384 H        35      M_A    0.0000
    250 H         158.8853  267.2284   77.8581 H        35      M_A    0.0000
    251 H         157.7478  265.6081   78.9845 H        35      M_A    0.0000
    252 H         157.0529  264.9316   77.5183 H        35      M_A    0.0000
    253 C         155.1409  265.6070   79.0886 C.3      36      M_A    0.0000
    254 C         153.8397  265.2529   78.3748 C.3      36      M_A    0.0000
    255 O         152.7650  265.1606   79.3099 O.3      36      M_A    0.0000
    256 H         154.9447  266.0801   80.0567 H        36      M_A    0.0000
    257 H         155.7035  264.6857   79.2780 H        36      M_A    0.0000
    258 H         153.9594  264.3174   77.8096 H        36      M_A    0.0000
    259 H         153.5719  266.0238   77.6415 H        36      M_A    0.0000
    260 C         153.2170  264.7256   80.5761 C.3      37      M_A    0.0000
    261 C         152.2574  263.7267   81.2161 C.3      37      M_A    0.0000
    262 O         151.2234  264.4097   81.9249 O.3      37      M_A    0.0000
    263 H         153.3676  265.5979   81.2209 H        37      M_A    0.0000
    264 H         154.1914  264.2429   80.4385 H        37      M_A    0.0000
    265 H         152.8081  263.0404   81.8754 H        37      M_A    0.0000
    266 H         151.7756  263.1015   80.4540 H        37      M_A    0.0000
    267 C         150.3289  265.0540   81.0407 C.3      38      M_A    0.0000
    268 C         149.5112  266.1364   81.7391 C.3      38      M_A    0.0000
    269 O         148.2041  265.6539   82.0498 O.3      38      M_A    0.0000
    270 H         149.6787  264.3027   80.5800 H        38      M_A    0.0000
    271 H         150.9195  265.5161   80.2414 H        38      M_A    0.0000
    272 H         149.4658  267.0401   81.1145 H        38      M_A    0.0000
    273 H         149.9832  266.4375   82.6827 H        38      M_A    0.0000
    274 C         147.5975  266.4229   83.0685 C.3      39      M_A    0.0000
    275 C         146.7489  265.5680   84.0050 C.3      39      M_A    0.0000
    276 O         145.3690  265.6559   83.6503 O.3      39      M_A    0.0000
    277 H         147.0003  267.2175   82.6087 H        39      M_A    0.0000
    278 H         148.3944  266.9011   83.6495 H        39      M_A    0.0000
    279 H         146.9136  265.8709   85.0491 H        39      M_A    0.0000
    280 H         147.0377  264.5114   83.9417 H        39      M_A    0.0000
    281 C         144.5988  264.6807   84.3232 C.3      40      M_A    0.0000
    282 C         143.1915  264.5616   83.7457 C.3      40      M_A    0.0000
    283 O         142.2432  265.1964   84.6034 O.3      40      M_A    0.0000
    284 H         144.5688  264.9232   85.3908 H        40      M_A    0.0000
    285 H         145.1086  263.7163   84.2166 H        40      M_A    0.0000
    286 H         142.9371  263.5048   83.5809 H        40      M_A    0.0000
    287 H         143.1267  265.0505   82.7656 H        40      M_A    0.0000
    288 C         141.1903  265.7831   83.8658 C.3      41      M_A    0.0000
    289 C         139.8680  265.7491   84.6265 C.3      41      M_A    0.0000
    290 O         138.8161  265.2838   83.7810 O.3      41      M_A    0.0000
    291 H         141.1039  265.2743   82.8998 H        41      M_A    0.0000
    292 H         141.4586  266.8271   83.6677 H        41      M_A    0.0000
    293 H         139.6408  266.7434   85.0371 H        41      M_A    0.0000
    294 H         139.9260  265.0674   85.4842 H        41      M_A    0.0000
    295 C         137.6071  265.1304   84.4962 C.3      42      M_A    0.0000
    296 C         136.4206  264.8778   83.5708 C.3      42      M_A    0.0000
    297 O         135.2555  265.5438   84.0575 O.3      42      M_A    0.0000
    298 H         137.4432  266.0187   85.1156 H        42      M_A    0.0000
    299 H         137.7204  264.2731   85.1696 H        42      M_A    0.0000
    300 H         136.2475  263.7974   83.4620 H        42      M_A    0.0000
    301 H         136.6208  265.2608   82.5623 H        42      M_A    0.0000
    302 C         134.1179  264.7079   83.9952 C.3      43      M_A    0.0000
    303 C         132.8463  265.4913   83.6831 C.3      43      M_A    0.0000
    304 O         131.8067  265.1429   84.5973 O.3      43      M_A    0.0000
    305 H         134.0238  264.1615   84.9398 H        43      M_A    0.0000
    306 H         134.2843  263.9710   83.2012 H        43      M_A    0.0000
    307 H         132.5385  265.3162   82.6421 H        43      M_A    0.0000
    308 H         133.0174  266.5710   83.7763 H        43      M_A    0.0000
    309 C         130.5847  264.9105   83.9269 C.3      44      M_A    0.0000
    310 C         129.3879  265.4304   84.7178 C.3      44      M_A    0.0000
    311 O         128.3844  264.4211   84.8282 O.3      44      M_A    0.0000
    312 H         130.4877  263.8390   83.7218 H        44      M_A    0.0000
    313 H         130.6252  265.4301   82.9627 H        44      M_A    0.0000
    314 H         128.9893  266.3411   84.2481 H        44      M_A    0.0000
    315 H         129.6831  265.7129   85.7361 H        44      M_A    0.0000
    316 C         128.2591  263.6830   83.6297 C.3      45      M_A    0.0000
    317 C         126.8190  263.6443   83.1271 C.3      45      M_A    0.0000
    318 O         126.0946  262.5920   83.7642 O.3      45      M_A    0.0000
    319 H         128.6491  262.6722   83.7902 H        45      M_A    0.0000
    320 H         128.8868  264.1638   82.8707 H        45      M_A    0.0000
    321 H         126.8016  263.5363   82.0330 H        45      M_A    0.0000
    322 H         126.2993  264.5840   83.3521 H        45      M_A    0.0000
    323 C         125.0529  263.0979   84.5741 C.3      46      M_A    0.0000
    324 C         123.6766  262.8323   83.9714 C.3      46      M_A    0.0000
    325 O         122.8832  264.0189   83.9931 O.3      46      M_A    0.0000
    326 H         125.2138  264.1692   84.7354 H        46      M_A    0.0000
    327 H         125.1141  262.6028   85.5500 H        46      M_A    0.0000
    328 H         123.1804  262.0097   84.5063 H        46      M_A    0.0000
    329 H         123.7611  262.5127   82.9252 H        46      M_A    0.0000
    330 C         122.2887  264.2205   85.2591 C.3      47      M_A    0.0000
    331 C         120.7877  263.9471   85.2386 C.3      47      M_A    0.0000
    332 O         120.0698  265.1232   84.8652 O.3      47      M_A    0.0000
    333 H         122.5000  265.2414   85.5946 H        47      M_A    0.0000
    334 H         122.7645  263.5334   85.9681 H        47      M_A    0.0000
    335 H         120.4571  263.5706   86.2173 H        47      M_A    0.0000
    336 H         120.5409  263.1660   84.5087 H        47      M_A    0.0000
    337 C         118.8407  264.8039   84.2453 C.3      48      M_A    0.0000
    338 C         119.0361  264.0004   82.9630 C.3      48      M_A    0.0000
    339 O         117.7788  263.7408   82.3386 O.3      48      M_A    0.0000
    340 H         118.2872  265.7290   84.0517 H        48      M_A    0.0000
    341 H         118.2521  264.2072   84.9515 H        48      M_A    0.0000
    342 H         119.5758  263.0670   83.1785 H        48      M_A    0.0000
    343 H         119.6524  264.5535   82.2432 H        48      M_A    0.0000
    344 C         117.1257  262.6363   82.9304 C.3      49      M_A    0.0000
    345 C         117.8585  261.3250   82.6626 C.3      49      M_A    0.0000
    346 O         116.9335  260.2997   82.3004 O.3      49      M_A    0.0000
    347 H         116.0938  262.5940   82.5659 H        49      M_A    0.0000
    348 H         117.0884  262.8070   84.0124 H        49      M_A    0.0000
    349 H         118.4522  261.0356   83.5416 H        49      M_A    0.0000
    350 H         118.5688  261.4344   81.8335 H        49      M_A    0.0000
    351 C         116.0235  260.0307   83.3475 C.3      50      M_A    0.0000
    352 C         116.1839  258.6169   83.8984 C.3      50      M_A    0.0000
    353 O         115.3717  257.6992   83.1661 O.3      50      M_A    0.0000
    354 H         115.0035  260.2011   82.9870 H        50      M_A    0.0000
    355 H         116.2147  260.7489   84.1530 H        50      M_A    0.0000
    356 H         115.9416  258.5977   84.9707 H        50      M_A    0.0000
    357 H         117.2235  258.2772   83.8114 H        50      M_A    0.0000
    358 C         115.5229  257.8734   81.7720 C.3      51      M_A    0.0000
    359 C         115.1622  256.6118   80.9933 C.3      51      M_A    0.0000
    360 O         116.3015  255.7616   80.8623 O.3      51      M_A    0.0000
    361 H         116.5504  258.1882   81.5605 H        51      M_A    0.0000
    362 H         114.8565  258.6855   81.4596 H        51      M_A    0.0000
    363 H         114.7469  256.8780   80.0107 H        51      M_A    0.0000
    364 H         114.3831  256.0394   81.5122 H        51      M_A    0.0000
    365 C         116.3000  254.7406   81.8392 C.3      52      M_A    0.0000
    366 C         116.1641  253.3530   81.2192 C.3      52      M_A    0.0000
    367 O         114.8818  252.7978   81.5111 O.3      52      M_A    0.0000
    368 H         115.4952  254.9335   82.5565 H        52      M_A    0.0000
    369 H         117.2495  254.7941   82.3840 H        52      M_A    0.0000
    370 H         116.9734  252.6983   81.5733 H        52      M_A    0.0000
    371 H         116.2611  253.3997   80.1273 H        52      M_A    0.0000
    372 C         114.1419  253.6329   82.3784 C.3      53      M_A    0.0000
    373 C         112.7975  253.0191   82.7578 C.3      53      M_A    0.0000
    374 O         112.0046  252.7915   81.5928 O.3      53      M_A    0.0000
    375 H         114.0102  254.6119   81.9055 H        53      M_A    0.0000
    376 H         114.7334  253.7815   83.2890 H        53      M_A    0.0000
    377 H         112.2747  253.6657   83.4773 H        53      M_A    0.0000
    378 H         112.9344  252.0513   83.2562 H        53      M_A    0.0000
    379 C         112.7406  252.1230   80.5887 C.3      54      M_A    0.0000
    380 C         112.0263  250.8697   80.0915 C.3      54      M_A    0.0000
    381 O         112.9622  249.8146   79.8705 O.3      54      M_A    0.0000
    382 H         113.7367  251.8830   80.9757 H        54      M_A    0.0000
    383 H         112.8694  252.8146   79.7483 H        54      M_A    0.0000
    384 H         111.4551  251.0950   79.1794 H        54      M_A    0.0000
    385 H         111.2982  250.5134   80.8308 H        54      M_A    0.0000
    386 C         112.4028  248.7837   79.0823 C.3      55      M_A    0.0000
    387 C         111.9401  247.6011   79.9282 C.3      55      M_A    0.0000
    388 O         111.9797  246.3947   79.1660 O.3      55      M_A    0.0000
    389 H         113.1360  248.4700   78.3317 H        55      M_A    0.0000
    390 H         111.5393  249.1978   78.5494 H        55      M_A    0.0000
    391 H         110.9325  247.7900   80.3257 H        55      M_A    0.0000
    392 H         112.5935  247.4614   80.7985 H        55      M_A    0.0000
    393 C         111.1355  246.4694   78.0352 C.3      56      M_A    0.0000
    394 C         109.8966  245.5913   78.1847 C.3      56      M_A    0.0000
    395 O         110.1909  244.2438   77.8164 O.3      56      M_A    0.0000
    396 H         111.7084  246.1961   77.1428 H        56      M_A    0.0000
    397 H         110.8189  247.5123   77.9193 H        56      M_A    0.0000
    398 H         109.0689  245.9977   77.5859 H        56      M_A    0.0000
    399 H         109.5474  245.5788   79.2247 H        56      M_A    0.0000
    400 C         110.4461  243.4415   78.9513 C.3      57      M_A    0.0000
    401 C         110.2395  241.9573   78.6635 C.3      57      M_A    0.0000
    402 O         109.3539  241.3801   79.6228 O.3      57      M_A    0.0000
    403 H         109.8087  243.7766   79.7765 H        57      M_A    0.0000
    404 H         111.4881  243.6028   79.2507 H        57      M_A    0.0000
    405 H         111.2071  241.4355   78.6477 H        57      M_A    0.0000
    406 H         109.7928  241.8081   77.6725 H        57      M_A    0.0000
    407 C         108.8423  240.1413   79.1748 C.3      58      M_A    0.0000
    408 C         107.5898  239.7265   79.9411 C.3      58      M_A    0.0000
    409 O         107.5069  238.3043   80.0323 O.3      58      M_A    0.0000
    410 H         109.6259  239.3805   79.2565 H        58      M_A    0.0000
    411 H         108.5903  240.2449   78.1132 H        58      M_A    0.0000
    412 H         106.6947  240.1493   79.4626 H        58      M_A    0.0000
    413 H         107.6072  240.1208   80.9648 H        58      M_A    0.0000
    414 C         106.2633  237.8273   79.5605 C.3      59      M_A    0.0000
    415 C         105.8660  236.5099   80.2200 C.3      59      M_A    0.0000
    416 O         105.7780  235.4695   79.2466 O.3      59      M_A    0.0000
    417 H         106.3095  237.7258   78.4710 H        59      M_A    0.0000
    418 H         105.5032  238.5826   79.7910 H        59      M_A    0.0000
    419 H         104.9184  236.6290   80.7649 H        59      M_A    0.0000
    420 H         106.6121  236.2023   80.9632 H        59      M_A    0.0000
    421 C         106.1103  234.2129   79.8011 C.3      60      M_A    0.0000
    422 C         105.3087  233.0775   79.1716 C.3      60      M_A    0.0000
    423 O         104.3893  232.5301   80.1167 O.3      60      M_A    0.0000
    424 H         105.9595  234.2496   80.8852 H        60      M_A    0.0000
    425 H         107.1769  234.0364   79.6206 H        60      M_A    0.0000
    426 H         105.9869  232.3056   78.7803 H        60      M_A    0.0000
    427 H         104.7245  233.4370   78.3154 H        60      M_A    0.0000
    428 C         104.5230  231.1268   80.2152 C.3      61      M_A    0.0000
    429 C         103.2391  230.3991   79.8277 C.3      61      M_A    0.0000
    430 O         102.9068  229.4147   80.8067 O.3      61      M_A    0.0000
    431 H         104.8322  230.8679   81.2335 H        61      M_A    0.0000
    432 H         105.3253  230.8162   79.5362 H        61      M_A    0.0000
    433 H         103.3436  229.9507   78.8293 H        61      M_A    0.0000
    434 H         102.3955  231.0978   79.7650 H        61      M_A    0.0000
    435 C         102.7631  228.1348   80.2252 C.3      62      M_A    0.0000
    436 C         101.6004  227.3555   80.8326 C.3      62      M_A    0.0000
    437 O         102.0142  226.0367   81.1897 O.3      62      M_A    0.0000
    438 H         103.7051  227.5863   80.3314 H        62      M_A    0.0000
    439 H         102.5776  228.2705   79.1535 H        62      M_A    0.0000
    440 H         100.7523  227.3328   80.1333 H        62      M_A    0.0000
    441 H         101.2347  227.8433   81.7447 H        62      M_A    0.0000
    442 C         100.9894  225.0921   80.9563 C.3      63      M_A    0.0000
    443 C         101.0391  223.9341   81.9486 C.3      63      M_A    0.0000
    444 O         100.6939  222.7079   81.3044 O.3      63      M_A    0.0000
    445 H         101.0634  224.7321   79.9246 H        63      M_A    0.0000
    446 H         100.0271  225.6065   81.0596 H        63      M_A    0.0000
    447 H         100.3769  224.1374   82.8026 H        63      M_A    0.0000
    448 H         102.0481  223.8150   82.3627 H        63      M_A    0.0000
    449 C         100.3467  221.7103   82.2432 C.3      64      M_A    0.0000
    450 C         100.0057  220.3834   81.5714 C.3      64      M_A    0.0000
    451 O          98.8693  219.7847   82.1942 O.3      64      M_A    0.0000
    452 H          99.5122  222.0698   82.8546 H        64      M_A    0.0000
    453 H         101.2047  221.5606   82.9086 H        64      M_A    0.0000
    454 H         100.8755  219.7112   81.5956 H        64      M_A    0.0000
    455 H          99.7600  220.5313   80.5124 H        64      M_A    0.0000
    456 C          98.2899  218.7939   81.3699 C.3      65      M_A    0.0000
    457 C          98.0608  217.4850   82.1200 C.3      65      M_A    0.0000
    458 O          98.2750  216.3690   81.2560 O.3      65      M_A    0.0000
    459 H          98.9279  218.6405   80.4931 H        65      M_A    0.0000
    460 H          97.3246  219.1729   81.0152 H        65      M_A    0.0000
    461 H          97.0501  217.4675   82.5527 H        65      M_A    0.0000
    462 H          98.7580  217.3875   82.9615 H        65      M_A    0.0000
    463 C          97.3974  215.3038   81.5596 C.3      66      M_A    0.0000
    464 C          98.0185  213.9437   81.2558 C.3      66      M_A    0.0000
    465 O          97.0760  213.0994   80.5951 O.3      66      M_A    0.0000
    466 H          96.4617  215.4433   81.0077 H        66      M_A    0.0000
    467 H          97.1623  215.3553   82.6289 H        66      M_A    0.0000
    468 H          98.3899  213.4808   82.1814 H        66      M_A    0.0000
    469 H          98.8870  214.0479   80.5935 H        66      M_A    0.0000
    470 C          97.2364  211.7480   80.9756 C.3      67      M_A    0.0000
    471 C          96.4832  210.7974   80.0497 C.3      67      M_A    0.0000
    472 O          95.7707  209.8201   80.8079 O.3      67      M_A    0.0000
    473 H          96.9112  211.6282   82.0146 H        67      M_A    0.0000
    474 H          98.3056  211.5107   80.9336 H        67      M_A    0.0000
    475 H          97.1801  210.3249   79.3426 H        67      M_A    0.0000
    476 H          95.7491  211.3410   79.4420 H        67      M_A    0.0000
    477 C          94.9222  209.0452   79.9854 C.3      68      M_A    0.0000
    478 C          94.5388  207.7219   80.6413 C.3      68      M_A    0.0000
    479 O          94.9300  206.6234   79.8178 O.3      68      M_A    0.0000
    480 H          95.4130  208.8804   79.0203 H        68      M_A    0.0000
    481 H          94.0113  209.6256   79.7993 H        68      M_A    0.0000
    482 H          93.4595  207.7005   80.8502 H        68      M_A    0.0000
    483 H          95.0423  207.6028   81.6088 H        68      M_A    0.0000
    484 C          94.1876  205.4597   80.1207 C.3      69      M_A    0.0000
    485 C          94.9642  204.1848   79.8049 C.3      69      M_A    0.0000
    486 O          94.0913  203.1840   79.2811 O.3      69      M_A    0.0000
    487 H          93.2382  205.4896   79.5756 H        69      M_A    0.0000
    488 H          93.9556  205.4774   81.1918 H        69      M_A    0.0000
    489 H          95.4888  203.8277   80.7028 H        69      M_A    0.0000
    490 H          95.7381  204.3733   79.0504 H        69      M_A    0.0000
    491 C          93.0482  202.8826   80.1855 C.3      70      M_A    0.0000
    492 C          93.0748  201.4222   80.6266 C.3      70      M_A    0.0000
    493 O          92.3420  200.6092   79.7103 O.3      70      M_A    0.0000
    494 H          92.0891  203.1384   79.7229 H        70      M_A    0.0000
    495 H          93.1717  203.5216   81.0674 H        70      M_A    0.0000
    496 H          92.6810  201.3272   81.6488 H        70      M_A    0.0000
    497 H          94.1027  201.0396   80.6557 H        70      M_A    0.0000
    498 C          92.6392  199.2385   79.8829 C.3      71      M_A    0.0000
    499 C          93.6982  198.7522   78.8980 C.3      71      M_A    0.0000
    500 O          93.1482  197.7762   78.0132 O.3      71      M_A    0.0000
    501 H          91.7153  198.6579   79.7887 H        71      M_A    0.0000
    502 H          93.0144  199.1010   80.9035 H        71      M_A    0.0000
    503 H          94.5676  198.3546   79.4412 H        71      M_A    0.0000
    504 H          94.0717  199.5801   78.2826 H        71      M_A    0.0000
    505 C          93.9764  197.5747   76.8861 C.3      72      M_A    0.0000
    506 C          93.4586  196.4570   75.9856 C.3      72      M_A    0.0000
    507 O          94.2327  195.2710   76.1645 O.3      72      M_A    0.0000
    508 H          94.9972  197.3683   77.2251 H        72      M_A    0.0000
    509 H          93.9998  198.5091   76.3137 H        72      M_A    0.0000
    510 H          93.4633  196.7829   74.9355 H        72      M_A    0.0000
    511 H          92.4174  196.2092   76.2267 H        72      M_A    0.0000
    512 C          94.3580  194.5480   74.9569 C.3      73      M_A    0.0000
    513 C          93.0278  194.4276   74.2191 C.3      73      M_A    0.0000
    514 O          92.6452  193.0577   74.0973 O.3      73      M_A    0.0000
    515 H          94.7806  193.5611   75.1734 H        73      M_A    0.0000
    516 H          95.0711  195.0809   74.3175 H        73      M_A    0.0000
    517 H          93.0944  194.9132   73.2349 H        73      M_A    0.0000
    518 H          92.2283  194.9448   74.7642 H        73      M_A    0.0000
    519 C          93.7736  192.2096   74.0299 C.3      74      M_A    0.0000
    520 C          93.6731  191.2107   72.8809 C.3      74      M_A    0.0000
    521 O          93.5865  189.8773   73.3831 O.3      74      M_A    0.0000
    522 H          93.8931  191.6969   74.9902 H        74      M_A    0.0000
    523 H          94.6586  192.8378   73.8772 H        74      M_A    0.0000
    524 H          94.5293  191.3271   72.2009 H        74      M_A    0.0000
    525 H          92.7744  191.3940   72.2787 H        74      M_A    0.0000
    526 C          93.1307  188.9796   72.3914 C.3      75      M_A    0.0000
    527 C          93.9459  187.6901   72.3659 C.3      75      M_A    0.0000
    528 O          94.0774  187.2075   71.0288 O.3      75      M_A    0.0000
    529 H          93.1534  189.4810   71.4180 H        75      M_A    0.0000
    530 H          92.0858  188.7342   72.6136 H        75      M_A    0.0000
    531 H          93.4841  186.9361   73.0195 H        75      M_A    0.0000
    532 H          94.9577  187.8575   72.7557 H        75      M_A    0.0000
    533 C          92.9291  186.4914   70.6222 C.3      76      M_A    0.0000
    534 C          93.2202  185.5558   69.4525 C.3      76      M_A    0.0000
    535 O          92.6222  186.0510   68.2546 O.3      76      M_A    0.0000
    536 H          92.1347  187.2024   70.3713 H        76      M_A    0.0000
    537 H          92.5837  185.8959   71.4750 H        76      M_A    0.0000
    538 H          92.8704  184.5393   69.6834 H        76      M_A    0.0000
    539 H          94.2996  185.4766   69.2724 H        76      M_A    0.0000
    540 C          92.4400  185.0217   67.3037 C.3      77      M_A    0.0000
    541 C          93.3338  185.2050   66.0808 C.3      77      M_A    0.0000
    542 O          92.5991  184.9571   64.8822 O.3      77      M_A    0.0000
    543 H          91.3833  184.9816   67.0186 H        77      M_A    0.0000
    544 H          92.6896  184.0695   67.7857 H        77      M_A    0.0000
    545 H          94.2143  184.5504   66.1527 H        77      M_A    0.0000
    546 H          93.7169  186.2316   66.0248 H        77      M_A    0.0000
    547 C          93.3896  185.1879   63.7338 C.3      78      M_A    0.0000
    548 C          92.8338  184.4790   62.5023 C.3      78      M_A    0.0000
    549 O          93.7030  183.4207   62.0991 O.3      78      M_A    0.0000
    550 H          94.4187  184.8745   63.9395 H        78      M_A    0.0000
    551 H          93.4033  186.2675   63.5455 H        78      M_A    0.0000
    552 H          92.6774  185.2004   61.6874 H        78      M_A    0.0000
    553 H          91.8527  184.0357   62.7138 H        78      M_A    0.0000
    554 C          92.9757  182.3105   61.6139 C.3      79      M_A    0.0000
    555 C          93.7665  181.0108   61.7303 C.3      79      M_A    0.0000
    556 O          93.3713  180.0916   60.7121 O.3      79      M_A    0.0000
    557 H          92.6807  182.5022   60.5767 H        79      M_A    0.0000
    558 H          92.0591  182.2223   62.2083 H        79      M_A    0.0000
    559 H          93.6381  180.5770   62.7324 H        79      M_A    0.0000
    560 H          94.8416  181.1932   61.6090 H        79      M_A    0.0000
    561 C          93.6190  178.7549   61.0977 C.3      80      M_A    0.0000
    562 C          94.0885  177.8971   59.9264 C.3      80      M_A    0.0000
    563 O          93.3400  176.6831   59.8634 O.3      80      M_A    0.0000
    564 H          92.7131  178.3406   61.5529 H        80      M_A    0.0000
    565 H          94.4010  178.7650   61.8656 H        80      M_A    0.0000
    566 H          95.1666  177.6982   60.0098 H        80      M_A    0.0000
    567 H          93.9448  178.4214   58.9734 H        80      M_A    0.0000
    568 C          93.8398  175.7198   60.7684 C.3      81      M_A    0.0000
    569 C          95.2278  175.2253   60.3719 C.3      81      M_A    0.0000
    570 O          95.1343  174.2550   59.3290 O.3      81      M_A    0.0000
    571 H          93.1286  174.8896   60.8355 H        81      M_A    0.0000
    572 H          93.8991  176.1862   61.7584 H        81      M_A    0.0000
    573 H          95.7513  174.8197   61.2496 H        81      M_A    0.0000
    574 H          95.8466  176.0506   59.9982 H        81      M_A    0.0000
    575 C          94.7424  174.8456   58.1066 C.3      82      M_A    0.0000
    576 C          95.5499  174.3130   56.9266 C.3      82      M_A    0.0000
    577 O          95.8371  175.3624   56.0023 O.3      82      M_A    0.0000
    578 H          94.8346  175.9338   58.1897 H        82      M_A    0.0000
    579 H          93.6834  174.6141   57.9447 H        82      M_A    0.0000
    580 H          95.0110  173.4876   56.4396 H        82      M_A    0.0000
    581 H          96.5091  173.8992   57.2621 H        82      M_A    0.0000
    582 C          96.7369  174.9364   54.9994 C.3      83      M_A    0.0000
    583 C          97.8108  175.9810   54.7103 C.3      83      M_A    0.0000
    584 O          98.2483  175.8871   53.3547 O.3      83      M_A    0.0000
    585 H          96.1721  174.6891   54.0942 H        83      M_A    0.0000
    586 H          97.2211  174.0175   55.3493 H        83      M_A    0.0000
    587 H          98.6508  175.8656   55.4104 H        83      M_A    0.0000
    588 H          97.4219  176.9959   54.8604 H        83      M_A    0.0000
    589 C          99.3520  176.7343   53.1075 C.3      84      M_A    0.0000
    590 C          99.8318  176.6451   51.6619 C.3      84      M_A    0.0000
    591 O         101.2487  176.4781   51.6142 O.3      84      M_A    0.0000
    592 H         100.1570  176.4857   53.8073 H        84      M_A    0.0000
    593 H          99.0393  177.7642   53.3144 H        84      M_A    0.0000
    594 H          99.5151  177.5363   51.1012 H        84      M_A    0.0000
    595 H          99.3822  175.7841   51.1514 H        84      M_A    0.0000
    596 C         101.6711  176.0000   50.3533 C.3      85      M_A    0.0000
    597 C         102.5226  177.0229   49.6072 C.3      85      M_A    0.0000
    598 O         102.2523  176.9728   48.2064 O.3      85      M_A    0.0000
    599 H         100.7915  175.7145   49.7664 H        85      M_A    0.0000
    600 H         102.2672  175.0952   50.5184 H        85      M_A    0.0000
    601 H         103.5889  176.8529   49.8150 H        85      M_A    0.0000
    602 H         102.3010  178.0419   49.9483 H        85      M_A    0.0000
    603 C         103.4148  176.6604   47.4661 C.3      86      M_A    0.0000
    604 C         103.7090  177.7035   46.3921 C.3      86      M_A    0.0000
    605 O         103.0939  177.3374   45.1570 O.3      86      M_A    0.0000
    606 H         103.3022  175.6630   47.0281 H        86      M_A    0.0000
    607 H         104.2588  176.6226   48.1643 H        86      M_A    0.0000
    608 H         104.7947  177.8322   46.2754 H        86      M_A    0.0000
    609 H         103.3115  178.6852   46.6788 H        86      M_A    0.0000
    610 C         102.6299  178.4721   44.4540 C.3      87      M_A    0.0000
    611 C         103.5232  178.8161   43.2658 C.3      87      M_A    0.0000
    612 O         103.7655  180.2219   43.2124 O.3      87      M_A    0.0000
    613 H         102.5530  179.3158   45.1481 H        87      M_A    0.0000
    614 H         101.6210  178.2518   44.0870 H        87      M_A    0.0000
    615 H         103.0697  178.4528   42.3323 H        87      M_A    0.0000
    616 H         104.4971  178.3179   43.3495 H        87      M_A    0.0000
    617 C         102.6432  180.9575   43.6555 C.3      88      M_A    0.0000
    618 C         102.3650  182.1690   42.7706 C.3      88      M_A    0.0000
    619 O         103.2330  183.2491   43.1135 O.3      88      M_A    0.0000
    620 H         102.8007  181.2566   44.6972 H        88      M_A    0.0000
    621 H         101.7727  180.2921   43.6296 H        88      M_A    0.0000
    622 H         101.3088  182.4636   42.8517 H        88      M_A    0.0000
    623 H         102.5382  181.9312   41.7136 H        88      M_A    0.0000
    624 C         103.9742  183.6922   41.9950 C.3      89      M_A    0.0000
    625 C         104.9297  182.6205   41.4784 C.3      89      M_A    0.0000
    626 O         106.1872  183.1982   41.1280 O.3      89      M_A    0.0000
    627 H         104.5137  184.6067   42.2632 H        89      M_A    0.0000
    628 H         103.2643  183.9472   41.1999 H        89      M_A    0.0000
    629 H         104.4811  182.0914   40.6253 H        89      M_A    0.0000
    630 H         105.1199  181.8608   42.2467 H        89      M_A    0.0000
    631 C         106.2487  183.5068   39.7503 C.3      90      M_A    0.0000
    632 C         106.2647  182.2528   38.8812 C.3      90      M_A    0.0000
    633 O         107.5374  182.0946   38.2542 O.3      90      M_A    0.0000
    634 H         107.1301  184.1292   39.5625 H        90      M_A    0.0000
    635 H         105.3632  184.1015   39.4984 H        90      M_A    0.0000
    636 H         105.4554  182.2957   38.1381 H        90      M_A    0.0000
    637 H         106.0817  181.3547   39.4844 H        90      M_A    0.0000
    638 C         108.1188  183.3440   37.9416 C.3      91      M_A    0.0000
    639 C         108.4059  183.4866   36.4499 C.3      91      M_A    0.0000
    640 O         109.7272  183.0376   36.1493 O.3      91      M_A    0.0000
    641 H         109.0313  183.4717   38.5338 H        91      M_A    0.0000
    642 H         107.4152  184.1282   38.2438 H        91      M_A    0.0000
    643 H         108.2558  184.5285   36.1324 H        91      M_A    0.0000
    644 H         107.7100  182.8804   35.8565 H        91      M_A    0.0000
    645 C         110.1782  183.5487   34.9115 C.3      92      M_A    0.0000
    646 C         109.4441  182.9219   33.7298 C.3      92      M_A    0.0000
    647 O         110.3456  182.1581   32.9287 O.3      92      M_A    0.0000
    648 H         111.2594  183.3927   34.8330 H        92      M_A    0.0000
    649 H         109.9982  184.6299   34.9076 H        92      M_A    0.0000
    650 H         108.9443  183.7013   33.1368 H        92      M_A    0.0000
    651 H         108.6542  182.2426   34.0739 H        92      M_A    0.0000
    652 C         109.8200  181.9252   31.6378 C.3      93      M_A    0.0000
    653 C         109.0580  180.6057   31.5576 C.3      93      M_A    0.0000
    654 O         109.3980  179.9032   30.3623 O.3      93      M_A    0.0000
    655 H         110.6368  181.9549   30.9087 H        93      M_A    0.0000
    656 H         109.1336  182.7460   31.4002 H        93      M_A    0.0000
    657 H         107.9755  180.7882   31.6200 H        93      M_A    0.0000
    658 H         109.3100  179.9548   32.4041 H        93      M_A    0.0000
    659 C         109.4886  178.5113   30.5884 C.3      94      M_A    0.0000
    660 C         110.5573  177.8566   29.7181 C.3      94      M_A    0.0000
    661 O         110.0590  176.6532   29.1339 O.3      94      M_A    0.0000
    662 H         108.5068  178.0569   30.4176 H        94      M_A    0.0000
    663 H         109.7463  178.3571   31.6424 H        94      M_A    0.0000
    664 H         111.4650  177.6680   30.3093 H        94      M_A    0.0000
    665 H         110.8565  178.5207   28.8976 H        94      M_A    0.0000
    666 C         110.8940  175.5515   29.4270 C.3      95      M_A    0.0000
    667 C         110.8288  174.4778   28.3449 C.3      95      M_A    0.0000
    668 O         110.0480  173.3678   28.7878 O.3      95      M_A    0.0000
    669 H         110.6178  175.1441   30.4054 H        95      M_A    0.0000
    670 H         111.9239  175.9193   29.4999 H        95      M_A    0.0000
    671 H         111.8433  174.1645   28.0595 H        95      M_A    0.0000
    672 H         110.3587  174.8672   27.4332 H        95      M_A    0.0000
    673 C         109.8202  172.4454   27.7416 C.3      96      M_A    0.0000
    674 C         109.2784  171.1153   28.2568 C.3      96      M_A    0.0000
    675 O         109.9541  170.0240   27.6320 O.3      96      M_A    0.0000
    676 H         110.7508  172.3031   27.1819 H        96      M_A    0.0000
    677 H         109.0861  172.8863   27.0576 H        96      M_A    0.0000
    678 H         108.1925  171.0593   28.0939 H        96      M_A    0.0000
    679 H         109.4328  171.0211   29.3389 H        96      M_A    0.0000
    680 C         110.1426  170.2549   26.2507 C.3      97      M_A    0.0000
    681 C         109.4711  169.1864   25.3930 C.3      97      M_A    0.0000
    682 O         110.3286  168.0553   25.2405 O.3      97      M_A    0.0000
    683 H         111.2160  170.3129   26.0413 H        97      M_A    0.0000
    684 H         109.7046  171.2302   26.0092 H        97      M_A    0.0000
    685 H         109.1860  169.6065   24.4177 H        97      M_A    0.0000
    686 H         108.5428  168.8344   25.8600 H        97      M_A    0.0000
    687 C         110.1536  167.4398   23.9805 C.3      98      M_A    0.0000
    688 C         109.3754  166.1314   24.0839 C.3      98      M_A    0.0000
    689 O         110.2621  165.0149   24.0133 O.3      98      M_A    0.0000
    690 H         111.1350  167.2809   23.5211 H        98      M_A    0.0000
    691 H         109.5966  168.1340   23.3408 H        98      M_A    0.0000
    692 H         108.6082  166.0831   23.2978 H        98      M_A    0.0000
    693 H         108.8413  166.0668   25.0401 H        98      M_A    0.0000
    694 C         109.5795  163.8352   23.6399 C.3      99      M_A    0.0000
    695 C         108.6094  163.3668   24.7204 C.3      99      M_A    0.0000
    696 O         108.3118  161.9800   24.5588 O.3      99      M_A    0.0000
    697 H         110.3134  163.0574   23.4034 H        99      M_A    0.0000
    698 H         109.0152  164.0477   22.7247 H        99      M_A    0.0000
    699 H         107.6950  163.9770   24.6999 H        99      M_A    0.0000
    700 H         109.0432  163.4953   25.7200 H        99      M_A    0.0000
    701 C         107.1653  161.6077   25.2961 C.3     100      M_A    0.0000
    702 C         106.4861  160.3707   24.7158 C.3     100      M_A    0.0000
    703 O         105.1615  160.6829   24.2847 O.3     100      M_A    0.0000
    704 H         106.4742  162.4564   25.3351 H       100      M_A    0.0000
    705 H         107.4809  161.3899   26.3229 H       100      M_A    0.0000
    706 H         106.4847  159.5566   25.4549 H       100      M_A    0.0000
    707 H         107.0352  159.9941   23.8438 H       100      M_A    0.0000
    708 C         104.4943  159.5383   23.7933 C.3     101      M_A    0.0000
    709 C         102.9772  159.6781   23.8765 C.3     101      M_A    0.0000
    710 O         102.3647  158.3986   24.0372 O.3     101      M_A    0.0000
    711 H         104.8410  158.6580   24.3451 H       101      M_A    0.0000
    712 H         104.7811  159.4057   22.7438 H       101      M_A    0.0000
    713 H         102.5943  160.1955   22.9851 H       101      M_A    0.0000
    714 H         102.6861  160.2921   24.7379 H       101      M_A    0.0000
    715 C         101.0484  158.5145   24.5380 C.3     102      M_A    0.0000
    716 C         100.0955  157.5184   23.8839 C.3     102      M_A    0.0000
    717 O          98.8780  158.1626   23.5091 O.3     102      M_A    0.0000
    718 H         100.7019  159.5439   24.3973 H       102      M_A    0.0000
    719 H         101.0797  158.3198   25.6161 H       102      M_A    0.0000
    720 H          99.9083  156.6720   24.5603 H       102      M_A    0.0000
    721 H         100.5361  157.0934   22.9734 H       102      M_A    0.0000
    722 C          97.9972  158.2830   24.6075 C.3     103      M_A    0.0000
    723 C          97.4756  156.9279   25.0765 C.3     103      M_A    0.0000
    724 O          96.4445  156.4603   24.2070 O.3     103      M_A    0.0000
    725 H          97.1732  158.9504   24.3334 H       103      M_A    0.0000
    726 H          98.5466  158.7553   25.4299 H       103      M_A    0.0000
    727 H          97.1221  156.9962   26.1154 H       103      M_A    0.0000
    728 H          98.2751  156.1765   25.0719 H       103      M_A    0.0000
    729 C          96.6300  155.1008   23.8691 C.3     104      M_A    0.0000
    730 C          96.0107  154.7554   22.5180 C.3     104      M_A    0.0000
    731 O          94.8396  153.9581   22.6935 O.3     104      M_A    0.0000
    732 H          96.2148  154.4747   24.6659 H       104      M_A    0.0000
    733 H          97.7081  154.9087   23.8244 H       104      M_A    0.0000
    734 H          96.7488  154.2470   21.8811 H       104      M_A    0.0000
    735 H          95.7123  155.6634   21.9793 H       104      M_A    0.0000
    736 C          94.1476  153.7801   21.4743 C.3     105      M_A    0.0000
    737 C          92.8398  154.5651   21.4365 C.3     105      M_A    0.0000
    738 O          91.7318  153.7046   21.7008 O.3     105      M_A    0.0000
    739 H          93.9716  152.7108   21.3161 H       105      M_A    0.0000
    740 H          94.7962  154.1326   20.6641 H       105      M_A    0.0000
    741 H          92.7296  155.0726   20.4674 H       105      M_A    0.0000
    742 H          92.8328  155.3534   22.1996 H       105      M_A    0.0000
    743 C          90.5021  154.3487   21.4367 C.3     106      M_A    0.0000
    744 C          89.3353  153.6737   22.1515 C.3     106      M_A    0.0000
    745 O          88.6830  152.7487   21.2816 O.3     106      M_A    0.0000
    746 H          90.3391  154.3776   20.3540 H       106      M_A    0.0000
    747 H          90.5818  155.3840   21.7876 H       106      M_A    0.0000
    748 H          88.6329  154.4305   22.5296 H       106      M_A    0.0000
    749 H          89.6834  153.1117   23.0271 H       106      M_A    0.0000
    750 C          87.6975  152.0020   21.9658 C.3     107      M_A    0.0000
    751 C          87.2029  150.8152   21.1441 C.3     107      M_A    0.0000
    752 O          85.7986  150.9194   20.9096 O.3     107      M_A    0.0000
    753 H          86.8705  152.6665   22.2378 H       107      M_A    0.0000
    754 H          88.1423  151.6289   22.8954 H       107      M_A    0.0000
    755 H          87.4549  149.8721   21.6500 H       107      M_A    0.0000
    756 H          87.6978  150.7818   20.1655 H       107      M_A    0.0000
    757 C          85.4336  152.2305   20.5294 C.3     108      M_A    0.0000
    758 C          84.1074  152.2614   19.7754 C.3     108      M_A    0.0000
    759 O          84.3325  152.2422   18.3659 O.3     108      M_A    0.0000
    760 H          86.2397  152.6661   19.9294 H       108      M_A    0.0000
    761 H          85.3372  152.8312   21.4410 H       108      M_A    0.0000
    762 H          83.5211  153.1421   20.0748 H       108      M_A    0.0000
    763 H          83.4950  151.3852   20.0222 H       108      M_A    0.0000
    764 C          83.1675  151.8640   17.6612 C.3     109      M_A    0.0000
    765 C          83.0606  152.5653   16.3103 C.3     109      M_A    0.0000
    766 O          81.9028  153.3994   16.2697 O.3     109      M_A    0.0000
    767 H          82.2905  152.0699   18.2840 H       109      M_A    0.0000
    768 H          83.2100  150.7813   17.4962 H       109      M_A    0.0000
    769 H          83.0483  151.8244   15.4980 H       109      M_A    0.0000
    770 H          83.9332  153.2056   16.1302 H       109      M_A    0.0000
    771 C          81.8317  154.1271   15.0604 C.3     110      M_A    0.0000
    772 C          80.9771  155.3839   15.1960 C.3     110      M_A    0.0000
    773 O          79.6318  155.1197   14.7982 O.3     110      M_A    0.0000
    774 H          81.4485  153.4718   14.2710 H       110      M_A    0.0000
    775 H          82.8508  154.4196   14.7827 H       110      M_A    0.0000
    776 H          81.4137  156.2048   14.6091 H       110      M_A    0.0000
    777 H          80.9500  155.7298   16.2368 H       110      M_A    0.0000
    778 C          78.7627  156.1635   15.1879 C.3     111      M_A    0.0000
    779 C          77.3613  155.6536   15.5104 C.3     111      M_A    0.0000
    780 O          76.3747  156.5797   15.0554 O.3     111      M_A    0.0000
    781 H          78.7357  156.9202   14.3966 H       111      M_A    0.0000
    782 H          79.1831  156.6354   16.0834 H       111      M_A    0.0000
    783 H          77.2651  155.4647   16.5892 H       111      M_A    0.0000
    784 H          77.1676  154.6958   15.0115 H       111      M_A    0.0000
    785 C          75.1004  155.9755   14.9660 C.3     112      M_A    0.0000
    786 C          74.1125  156.5683   15.9664 C.3     112      M_A    0.0000
    787 O          73.1250  155.6024   16.3269 O.3     112      M_A    0.0000
    788 H          75.2065  154.8947   15.1083 H       112      M_A    0.0000
    789 H          74.7197  156.1404   13.9516 H       112      M_A    0.0000
    790 H          73.6512  157.4761   15.5518 H       112      M_A    0.0000
    791 H          74.6232  156.8754   16.8876 H       112      M_A    0.0000
    792 C          72.3113  156.0650   17.3855 C.3     113      M_A    0.0000
    793 C          70.8330  156.0826   17.0079 C.3     113      M_A    0.0000
    794 O          70.3973  157.4180   16.7535 O.3     113      M_A    0.0000
    795 H          72.6532  157.0597   17.6907 H       113      M_A    0.0000
    796 H          72.4515  155.3904   18.2379 H       113      M_A    0.0000
    797 H          70.2335  155.6103   17.7994 H       113      M_A    0.0000
    798 H          70.6538  155.4993   16.0961 H       113      M_A    0.0000
    799 C          69.0221  157.5763   17.0373 C.3     114      M_A    0.0000
    800 C          68.1952  157.7854   15.7721 C.3     114      M_A    0.0000
    801 O          66.9447  158.3977   16.0871 O.3     114      M_A    0.0000
    802 H          68.8949  158.4108   17.7351 H       114      M_A    0.0000
    803 H          68.6752  156.6670   17.5413 H       114      M_A    0.0000
    804 H          68.0516  156.8285   15.2501 H       114      M_A    0.0000
    805 H          68.7160  158.4456   15.0674 H       114      M_A    0.0000
    806 C          65.9446  158.0407   15.1547 C.3     115      M_A    0.0000
    807 C          66.4735  158.0240   13.7236 C.3     115      M_A    0.0000
    808 O          65.3961  157.9174   12.7931 O.3     115      M_A    0.0000
    809 H          65.0994  158.7298   15.2558 H       115      M_A    0.0000
    810 H          65.5867  157.0372   15.4122 H       115      M_A    0.0000
    811 H          67.1952  157.2045   13.5952 H       115      M_A    0.0000
    812 H          67.0151  158.9502   13.4944 H       115      M_A    0.0000
    813 C          64.3590  157.0987   13.2941 C.3     116      M_A    0.0000
    814 C          63.8491  156.1129   12.2471 C.3     116      M_A    0.0000
    815 O          62.8809  156.7356   11.4030 O.3     116      M_A    0.0000
    816 H          63.5488  157.7354   13.6654 H       116      M_A    0.0000
    817 H          64.7559  156.5363   14.1471 H       116      M_A    0.0000
    818 H          63.4369  155.2188   12.7366 H       116      M_A    0.0000
    819 H          64.6677  155.7631   11.6057 H       116      M_A    0.0000
    820 C          62.5306  155.9033   10.3161 C.3     117      M_A    0.0000
    821 C          61.9670  156.6986    9.1422 C.3     117      M_A    0.0000
    822 O          60.6091  157.0625    9.3902 O.3     117      M_A    0.0000
    823 H          61.8168  155.1474   10.6604 H       117      M_A    0.0000
    824 H          63.4355  155.3794    9.9875 H       117      M_A    0.0000
    825 H          62.0627  156.1210    8.2116 H       117      M_A    0.0000
    826 H          62.5328  157.6261    8.9887 H       117      M_A    0.0000
    827 C          60.2301  156.7711   10.7199 C.3     118      M_A    0.0000
    828 C          59.0148  157.5813   11.1613 C.3     118      M_A    0.0000
    829 O          57.9263  156.7156   11.4835 O.3     118      M_A    0.0000
    830 H          61.0845  156.9477   11.3819 H       118      M_A    0.0000
    831 H          59.9838  155.7045   10.7741 H       118      M_A    0.0000
    832 H          58.7347  158.3018   10.3794 H       118      M_A    0.0000
    833 H          59.2412  158.1720   12.0577 H       118      M_A    0.0000
    834 C          56.8549  157.4276   12.0682 C.3     119      M_A    0.0000
    835 C          55.5028  156.9855   11.5164 C.3     119      M_A    0.0000
    836 O          54.5391  158.0292   11.6576 O.3     119      M_A    0.0000
    837 H          57.0128  158.5005   11.9148 H       119      M_A    0.0000
    838 H          56.8754  157.2406   13.1480 H       119      M_A    0.0000
    839 H          55.1712  156.0646   12.0173 H       119      M_A    0.0000
    840 H          55.5739  156.7465   10.4479 H       119      M_A    0.0000
    841 C          53.9963  158.0589   12.9620 C.3     120      M_A    0.0000
    842 C          53.1390  156.8312   13.2552 C.3     120      M_A    0.0000
    843 O          51.8049  157.0291   12.7873 O.3     120      M_A    0.0000
    844 H          53.4211  158.9822   13.0887 H       120      M_A    0.0000
    845 H          54.8297  158.0874   13.6732 H       120      M_A    0.0000
    846 H          53.1559  156.6046   14.3310 H       120      M_A    0.0000
    847 H          53.5370  155.9440   12.7471 H       120      M_A    0.0000
    848 C          51.0427  155.8429   12.8808 C.3     121      M_A    0.0000
    849 C          50.4800  155.4139   11.5289 C.3     121      M_A    0.0000
    850 O          49.2721  154.6731   11.7019 O.3     121      M_A    0.0000
    851 H          50.2421  155.9893   13.6137 H       121      M_A    0.0000
    852 H          51.6980  155.0502   13.2597 H       121      M_A    0.0000
    853 H          51.2296  154.8324   10.9731 H       121      M_A    0.0000
    854 H          50.2440  156.2866   10.9072 H       121      M_A    0.0000
    855 C          49.5264  153.3817   12.2159 C.3     122      M_A    0.0000
    856 C          48.6557  152.3182   11.5534 C.3     122      M_A    0.0000
    857 O          48.2586  151.3318   12.5059 O.3     122      M_A    0.0000
    858 H          49.3789  153.3935   13.3011 H       122      M_A    0.0000
    859 H          50.5799  153.1453   12.0272 H       122      M_A    0.0000
    860 H          49.1899  151.8640   10.7065 H       122      M_A    0.0000
    861 H          47.7416  152.7615   11.1390 H       122      M_A    0.0000
    862 C          49.2748  150.3713   12.7101 C.3     123      M_A    0.0000
    863 C          48.7476  148.9442   12.5938 C.3     123      M_A    0.0000
    864 O          48.4745  148.4046   13.8869 O.3     123      M_A    0.0000
    865 H          49.7378  150.5433   13.6876 H       123      M_A    0.0000
    866 H          50.0450  150.5281   11.9463 H       123      M_A    0.0000
    867 H          49.4644  148.3186   12.0427 H       123      M_A    0.0000
    868 H          47.8115  148.9168   12.0221 H       123      M_A    0.0000
    869 C          47.8155  147.1577   13.7985 C.3     124      M_A    0.0000
    870 C          46.5530  147.1137   14.6542 C.3     124      M_A    0.0000
    871 O          46.6370  146.0624   15.6163 O.3     124      M_A    0.0000
    872 H          48.5138  146.3635   14.0829 H       124      M_A    0.0000
    873 H          47.5391  146.9963   12.7502 H       124      M_A    0.0000
    874 H          45.6652  147.0011   14.0154 H       124      M_A    0.0000
    875 H          46.4191  148.0531   15.2050 H       124      M_A    0.0000
    876 C          45.3882  145.8253   16.2337 C.3     125      M_A    0.0000
    877 C          45.5020  144.8546   17.4054 C.3     125      M_A    0.0000
    878 O          44.4142  143.9303   17.3971 O.3     125      M_A    0.0000
    879 H          44.6823  145.4564   15.4819 H       125      M_A    0.0000
    880 H          45.0075  146.7842   16.6034 H       125      M_A    0.0000
    881 H          45.5489  145.4086   18.3540 H       125      M_A    0.0000
    882 H          46.4292  144.2712   17.3432 H       125      M_A    0.0000
    883 C          43.2473  144.5097   16.8497 C.3     126      M_A    0.0000
    884 C          42.3819  145.1746   17.9160 C.3     126      M_A    0.0000
    885 O          41.0009  145.0891   17.5647 O.3     126      M_A    0.0000
    886 H          42.6864  143.7403   16.3085 H       126      M_A    0.0000
    887 H          43.5574  145.2677   16.1213 H       126      M_A    0.0000
    888 H          42.6937  146.2190   18.0608 H       126      M_A    0.0000
    889 H          42.5052  144.6788   18.8870 H       126      M_A    0.0000
    890 C          40.7539  145.6588   16.2953 C.3     127      M_A    0.0000
    891 C          39.9587  146.9572   16.3936 C.3     127      M_A    0.0000
    892 O          38.5696  146.6810   16.5723 O.3     127      M_A    0.0000
    893 H          40.2363  144.9246   15.6687 H       127      M_A    0.0000
    894 H          41.7220  145.8705   15.8268 H       127      M_A    0.0000
    895 H          40.1317  147.5767   15.5018 H       127      M_A    0.0000
    896 H          40.2879  147.5551   17.2526 H       127      M_A    0.0000
    897 C          38.2199  146.6521   17.9411 C.3     128      M_A    0.0000
    898 C          36.7822  146.1887   18.1568 C.3     128      M_A    0.0000
    899 O          36.3710  146.4419   19.5002 O.3     128      M_A    0.0000
    900 H          38.3841  147.6452   18.3729 H       128      M_A    0.0000
    901 H          38.8970  145.9545   18.4473 H       128      M_A    0.0000
    902 H          36.6848  145.1234   17.9028 H       128      M_A    0.0000
    903 H          36.0926  146.7275   17.4951 H       128      M_A    0.0000
    904 C          34.9978  146.7685   19.5679 C.3     129      M_A    0.0000
    905 C          34.1808  145.6759   20.2511 C.3     129      M_A    0.0000
    906 O          33.8171  144.6627   19.3135 O.3     129      M_A    0.0000
    907 H          34.6270  146.9654   18.5563 H       129      M_A    0.0000
    908 H          34.9001  147.6964   20.1431 H       129      M_A    0.0000
    909 H          33.2938  146.1110   20.7337 H       129      M_A    0.0000
    910 H          34.7597  145.1932   21.0483 H       129      M_A    0.0000
    911 C          34.7774  143.6268   19.2730 C.3     130      M_A    0.0000
    912 C          34.1943  142.2860   19.7093 C.3     130      M_A    0.0000
    913 O          35.1613  141.5347   20.4430 O.3     130      M_A    0.0000
    914 H          35.6326  143.9077   19.8967 H       130      M_A    0.0000
    915 H          35.1348  143.5388   18.2406 H       130      M_A    0.0000
    916 H          33.8331  141.7265   18.8344 H       130      M_A    0.0000
    917 H          33.3251  142.4301   20.3632 H       130      M_A    0.0000
    918 C          34.5907  140.3745   21.0133 C.3     131      M_A    0.0000
    919 C          35.6519  139.3765   21.4672 C.3     131      M_A    0.0000
    920 O          35.7823  138.3182   20.5181 O.3     131      M_A    0.0000
    921 H          33.9052  139.9207   20.2897 H       131      M_A    0.0000
    922 H          33.9987  140.6824   21.8827 H       131      M_A    0.0000
    923 H          35.4060  138.9893   22.4665 H       131      M_A    0.0000
    924 H          36.6327  139.8600   21.5569 H       131      M_A    0.0000
    925 C          37.0512  137.7019   20.6015 C.3     132      M_A    0.0000
    926 C          37.0275  136.2665   20.0848 C.3     132      M_A    0.0000
    927 O          37.5395  135.3708   21.0714 O.3     132      M_A    0.0000
    928 H          37.4009  137.7430   21.6386 H       132      M_A    0.0000
    929 H          37.7504  138.2864   19.9926 H       132      M_A    0.0000
    930 H          37.5933  136.1920   19.1450 H       132      M_A    0.0000
    931 H          36.0029  135.9494   19.8534 H       132      M_A    0.0000
    932 C          37.3582  134.0224   20.6897 C.3     133      M_A    0.0000
    933 C          38.2366  133.0734   21.4997 C.3     133      M_A    0.0000
    934 O          38.5540  131.9102   20.7355 O.3     133      M_A    0.0000
    935 H          37.5557  133.9250   19.6169 H       133      M_A    0.0000
    936 H          36.3068  133.7629   20.8581 H       133      M_A    0.0000
    937 H          37.7389  132.8082   22.4436 H       133      M_A    0.0000
    938 H          39.1837  133.5539   21.7752 H       133      M_A    0.0000
    939 C          37.5065  131.5718   19.8493 C.3     134      M_A    0.0000
    940 C          36.8330  130.2572   20.2317 C.3     134      M_A    0.0000
    941 O          37.6096  129.1474   19.7809 O.3     134      M_A    0.0000
    942 H          37.9011  131.5316   18.8284 H       134      M_A    0.0000
    943 H          36.7618  132.3753   19.8854 H       134      M_A    0.0000
    944 H          35.8118  130.2218   19.8259 H       134      M_A    0.0000
    945 H          36.7349  130.1686   21.3209 H       134      M_A    0.0000
    946 C          38.6109  128.8026   20.7166 C.3     135      M_A    0.0000
    947 C          38.9620  127.3188   20.6612 C.3     135      M_A    0.0000
    948 O          38.7945  126.7166   21.9446 O.3     135      M_A    0.0000
    949 H          38.2786  129.0931   21.7189 H       135      M_A    0.0000
    950 H          39.5073  129.3881   20.4820 H       135      M_A    0.0000
    951 H          39.9874  127.1852   20.2876 H       135      M_A    0.0000
    952 H          38.3069  126.7862   19.9605 H       135      M_A    0.0000
    953 C          39.5993  125.5634   22.0839 C.3     136      M_A    0.0000
    954 C          38.8487  124.2903   21.7047 C.3     136      M_A    0.0000
    955 O          38.1927  123.7374   22.8457 O.3     136      M_A    0.0000
    956 H          39.9732  125.5106   23.1119 H       136      M_A    0.0000
    957 H          40.4654  125.6749   21.4215 H       136      M_A    0.0000
    958 H          39.5379  123.5648   21.2491 H       136      M_A    0.0000
    959 H          38.0783  124.4982   20.9516 H       136      M_A    0.0000
    960 C          37.8030  122.3980   22.6197 C.3     137      M_A    0.0000
    961 C          36.3831  122.1234   23.1060 C.3     137      M_A    0.0000
    962 O          36.4065  121.4535   24.3664 O.3     137      M_A    0.0000
    963 H          38.5229  121.7298   23.1042 H       137      M_A    0.0000
    964 H          37.8508  122.2105   21.5409 H       137      M_A    0.0000
    965 H          35.8303  121.5418   22.3542 H       137      M_A    0.0000
    966 H          35.8267  123.0592   23.2417 H       137      M_A    0.0000
    967 C          37.4745  120.5313   24.4422 C.3     138      M_A    0.0000
    968 C          37.1387  119.3355   25.3284 C.3     138      M_A    0.0000
    969 O          37.5284  119.5879   26.6784 O.3     138      M_A    0.0000
    970 H          38.3698  121.0501   24.8010 H       138      M_A    0.0000
    971 H          37.6832  120.1731   23.4276 H       138      M_A    0.0000
    972 H          37.6181  118.4266   24.9371 H       138      M_A    0.0000
    973 H          36.0594  119.1384   25.3295 H       138      M_A    0.0000
    974 C          36.8936  118.6988   27.5748 C.3     139      M_A    0.0000
    975 C          37.6219  118.6156   28.9130 C.3     139      M_A    0.0000
    976 O          37.9355  117.2591   29.2286 O.3     139      M_A    0.0000
    977 H          36.8160  117.7126   27.1050 H       139      M_A    0.0000
    978 H          35.8751  119.0647   27.7476 H       139      M_A    0.0000
    979 H          37.0163  119.0805   29.7042 H       139      M_A    0.0000
    980 H          38.5668  119.1723   28.8810 H       139      M_A    0.0000
    981 C          36.9372  116.3752   28.7607 C.3     140      M_A    0.0000
    982 C          37.0088  115.0138   29.4461 C.3     140      M_A    0.0000
    983 O          37.7076  114.0770   28.6264 O.3     140      M_A    0.0000
    984 H          37.0286  116.2759   27.6739 H       140      M_A    0.0000
    985 H          35.9612  116.8273   28.9713 H       140      M_A    0.0000
    986 H          35.9972  114.6570   29.6878 H       140      M_A    0.0000
    987 H          37.5474  115.0821   30.3995 H       140      M_A    0.0000
    988 C          37.1587  112.7798   28.7402 C.3     141      M_A    0.0000
    989 C          38.1757  111.7699   29.2635 C.3     141      M_A    0.0000
    990 O          38.1373  110.5726   28.4871 O.3     141      M_A    0.0000
    991 H          36.7620  112.4730   27.7665 H       141      M_A    0.0000
    992 H          36.3168  112.8304   29.4401 H       141      M_A    0.0000
    993 H          37.9917  111.5626   30.3275 H       141      M_A    0.0000
    994 H          39.1952  112.1703   29.1996 H       141      M_A    0.0000
    995 C          37.2317  109.6332   29.0296 C.3     142      M_A    0.0000
    996 C          37.8134  108.2228   29.0538 C.3     142      M_A    0.0000
    997 O          37.1208  107.3800   28.1330 O.3     142      M_A    0.0000
    998 H          36.2978  109.6659   28.4582 H       142      M_A    0.0000
    999 H          37.0028  109.9400   30.0566 H       142      M_A    0.0000
   1000 H          37.7773  107.8149   30.0742 H       142      M_A    0.0000
   1001 H          38.8709  108.2293   28.7618 H       142      M_A    0.0000
   1002 C          37.1649  106.0265   28.5370 C.3     143      M_A    0.0000
   1003 C          37.7626  105.1253   27.4606 C.3     143      M_A    0.0000
   1004 O          37.2535  103.7970   27.5807 O.3     143      M_A    0.0000
   1005 H          36.1548  105.7016   28.8085 H       143      M_A    0.0000
   1006 H          37.7866  105.9637   29.4374 H       143      M_A    0.0000
   1007 H          38.8604  105.1397   27.5201 H       143      M_A    0.0000
   1008 H          37.5037  105.4868   26.4576 H       143      M_A    0.0000
   1009 C          38.1817  102.9431   28.2181 C.3     144      M_A    0.0000
   1010 C          37.6137  101.5453   28.4454 C.3     144      M_A    0.0000
   1011 O          38.2269  100.9345   29.5807 O.3     144      M_A    0.0000
   1012 H          38.4977  103.3997   29.1621 H       144      M_A    0.0000
   1013 H          39.0658  102.8662   27.5748 H       144      M_A    0.0000
   1014 H          37.7433  100.9315   27.5424 H       144      M_A    0.0000
   1015 H          36.5343  101.5866   28.6376 H       144      M_A    0.0000
   1016 C          38.7017   99.6385   29.2774 C.3     145      M_A    0.0000
   1017 C          37.7215   98.5521   29.7101 C.3     145      M_A    0.0000
   1018 O          38.4247   97.4015   30.1787 O.3     145      M_A    0.0000
   1019 H          39.6808   99.4976   29.7475 H       145      M_A    0.0000
   1020 H          38.8430   99.5768   28.1923 H       145      M_A    0.0000
   1021 H          37.0465   98.2977   28.8803 H       145      M_A    0.0000
   1022 H          37.0830   98.9035   30.5301 H       145      M_A    0.0000
   1023 C          37.8752   96.2102   29.6536 C.3     146      M_A    0.0000
   1024 C          38.2943   94.9821   30.4563 C.3     146      M_A    0.0000
   1025 O          38.4771   93.8591   29.5941 O.3     146      M_A    0.0000
   1026 H          38.1681   96.1144   28.6027 H       146      M_A    0.0000
   1027 H          36.7833   96.2996   29.6865 H       146      M_A    0.0000
   1028 H          37.5521   94.7688   31.2389 H       146      M_A    0.0000
   1029 H          39.2458   95.1573   30.9737 H       146      M_A    0.0000
   1030 C          37.4964   93.8227   28.5773 C.3     147      M_A    0.0000
   1031 C          36.4868   92.6993   28.7933 C.3     147      M_A    0.0000
   1032 O          36.6911   91.6533   27.8435 O.3     147      M_A    0.0000
   1033 H          37.9925   93.7270   27.6056 H       147      M_A    0.0000
   1034 H          36.9665   94.7821   28.5857 H       147      M_A    0.0000
   1035 H          35.4621   93.0942   28.7389 H       147      M_A    0.0000
   1036 H          36.5953   92.2608   29.7932 H       147      M_A    0.0000
   1037 C          35.7795   90.5915   28.0394 C.3     148      M_A    0.0000
   1038 C          36.1741   89.7061   29.2177 C.3     148      M_A    0.0000
   1039 O          36.1071   88.3277   28.8525 O.3     148      M_A    0.0000
   1040 H          35.7053   90.0091   27.1148 H       148      M_A    0.0000
   1041 H          34.7931   91.0264   28.2373 H       148      M_A    0.0000
   1042 H          35.5339   89.9214   30.0853 H       148      M_A    0.0000
   1043 H          37.2037   89.9119   29.5360 H       148      M_A    0.0000
   1044 C          36.1137   87.4902   29.9906 C.3     149      M_A    0.0000
   1045 C          37.2663   86.4907   29.9613 C.3     149      M_A    0.0000
   1046 O          36.7771   85.1581   30.1128 O.3     149      M_A    0.0000
   1047 H          35.1482   86.9782   30.0631 H       149      M_A    0.0000
   1048 H          36.2187   88.1266   30.8767 H       149      M_A    0.0000
   1049 H          38.0024   86.7374   30.7399 H       149      M_A    0.0000
   1050 H          37.8020   86.5372   29.0050 H       149      M_A    0.0000
   1051 C          37.7689   84.2037   29.7929 C.3     150      M_A    0.0000
   1052 C          37.1826   82.8075   29.6049 C.3     150      M_A    0.0000
   1053 O          37.7273   81.9026   30.5652 O.3     150      M_A    0.0000
   1054 H          38.5352   84.2086   30.5754 H       150      M_A    0.0000
   1055 H          38.2479   84.5159   28.8579 H       150      M_A    0.0000
   1056 H          37.3608   82.4562   28.5783 H       150      M_A    0.0000
   1057 H          36.0942   82.8169   29.7427 H       150      M_A    0.0000
   1058 C          36.8159   80.8684   30.8764 C.3     151      M_A    0.0000
   1059 C          37.2907   80.0192   32.0518 C.3     151      M_A    0.0000
   1060 O          37.5505   78.6805   31.6294 O.3     151      M_A    0.0000
   1061 H          36.6547   80.2538   29.9843 H       151      M_A    0.0000
   1062 H          35.8574   81.3313   31.1377 H       151      M_A    0.0000
   1063 H          36.5491   80.0457   32.8631 H       151      M_A    0.0000
   1064 H          38.2223   80.4174   32.4728 H       151      M_A    0.0000
   1065 C          38.4745   78.0386   32.4842 C.3     152      M_A    0.0000
   1066 C          37.8273   76.9161   33.2900 C.3     152      M_A    0.0000
   1067 O          38.5039   76.7390   34.5345 O.3     152      M_A    0.0000
   1068 H          38.9308   78.7854   33.1426 H       152      M_A    0.0000
   1069 H          39.2710   77.6145   31.8620 H       152      M_A    0.0000
   1070 H          37.8172   75.9856   32.7044 H       152      M_A    0.0000
   1071 H          36.7793   77.1491   33.5162 H       152      M_A    0.0000
   1072 C          39.6702   75.9559   34.3822 C.3     153      M_A    0.0000
   1073 C          40.6487   76.1527   35.5363 C.3     153      M_A    0.0000
   1074 O          41.8755   75.4715   35.2740 O.3     153      M_A    0.0000
   1075 H          40.1386   76.1955   33.4216 H       153      M_A    0.0000
   1076 H          39.3674   74.9030   34.3497 H       153      M_A    0.0000
   1077 H          40.1965   75.8132   36.4793 H       153      M_A    0.0000
   1078 H          40.8857   77.2152   35.6732 H       153      M_A    0.0000
   1079 C          42.4227   74.9189   36.4539 C.3     154      M_A    0.0000
   1080 C          42.3953   73.3934   36.4397 C.3     154      M_A    0.0000
   1081 O          42.1090   72.8858   37.7429 O.3     154      M_A    0.0000
   1082 H          41.8811   75.3159   37.3191 H       154      M_A    0.0000
   1083 H          43.4633   75.2541   36.5319 H       154      M_A    0.0000
   1084 H          43.3486   73.0002   36.0581 H       154      M_A    0.0000
   1085 H          41.6157   73.0210   35.7636 H       154      M_A    0.0000
   1086 C          43.0845   73.2910   38.6816 C.3     155      M_A    0.0000
   1087 C          43.0810   72.4121   39.9289 C.3     155      M_A    0.0000
   1088 O          42.8335   73.1983   41.0944 O.3     155      M_A    0.0000
   1089 H          42.9181   74.3426   38.9386 H       155      M_A    0.0000
   1090 H          44.0662   73.2189   38.1998 H       155      M_A    0.0000
   1091 H          44.0311   71.8648   40.0101 H       155      M_A    0.0000
   1092 H          42.2917   71.6523   39.8715 H       155      M_A    0.0000
   1093 C          44.0106   73.8347   41.5487 C.3     156      M_A    0.0000
   1094 C          44.7922   72.9643   42.5283 C.3     156      M_A    0.0000
   1095 O          44.0000   72.6704   43.6789 O.3     156      M_A    0.0000
   1096 H          43.7454   74.7969   41.9995 H       156      M_A    0.0000
   1097 H          44.6410   74.0400   40.6759 H       156      M_A    0.0000
   1098 H          45.7341   73.4585   42.8070 H       156      M_A    0.0000
   1099 H          45.0706   72.0080   42.0681 H       156      M_A    0.0000
   1100 C          42.7742   72.0646   43.3218 C.3     157      M_A    0.0000
   1101 C          42.2064   71.2091   44.4504 C.3     157      M_A    0.0000
   1102 O          42.6247   69.8516   44.3085 O.3     157      M_A    0.0000
   1103 H          42.9199   71.4726   42.4119 H       157      M_A    0.0000
   1104 H          42.0598   72.8621   43.0875 H       157      M_A    0.0000
   1105 H          41.1100   71.2894   44.4727 H       157      M_A    0.0000
   1106 H          42.5610   71.5618   45.4269 H       157      M_A    0.0000
   1107 C          43.0604   69.3132   45.5403 C.3     158      M_A    0.0000
   1108 C          43.7198   67.9479   45.3690 C.3     158      M_A    0.0000
   1109 O          43.1058   66.9847   46.2251 O.3     158      M_A    0.0000
   1110 H          42.2091   69.2577   46.2271 H       158      M_A    0.0000
   1111 H          43.7901   70.0077   45.9723 H       158      M_A    0.0000
   1112 H          44.8001   68.0216   45.5599 H       158      M_A    0.0000
   1113 H          43.6129   67.5869   44.3384 H       158      M_A    0.0000
   1114 C          43.7276   65.7208   46.1115 C.3     159      M_A    0.0000
   1115 C          43.8291   65.0079   47.4568 C.3     159      M_A    0.0000
   1116 O          45.0911   64.3525   47.5818 O.3     159      M_A    0.0000
   1117 H          44.7155   65.8483   45.6561 H       159      M_A    0.0000
   1118 H          43.1251   65.1088   45.4305 H       159      M_A    0.0000
   1119 H          42.9969   64.2990   47.5743 H       159      M_A    0.0000
   1120 H          43.7457   65.7211   48.2863 H       159      M_A    0.0000
   1121 C          45.2818   63.8420   48.8856 C.3     160      M_A    0.0000
   1122 C          46.7211   64.0105   49.3633 C.3     160      M_A    0.0000
   1123 O          47.1995   62.7992   49.9479 O.3     160      M_A    0.0000
   1124 H          44.9795   62.7895   48.9051 H       160      M_A    0.0000
   1125 H          44.6170   64.3904   49.5628 H       160      M_A    0.0000
   1126 H          46.7906   64.8501   50.0698 H       160      M_A    0.0000
   1127 H          47.3863   64.2564   48.5262 H       160      M_A    0.0000
   1128 C          46.4884   62.4773   51.1259 C.3     161      M_A    0.0000
   1129 C          47.3416   62.6554   52.3782 C.3     161      M_A    0.0000
   1130 O          48.2053   61.5333   52.5593 O.3     161      M_A    0.0000
   1131 H          46.1115   61.4520   51.0469 H       161      M_A    0.0000
   1132 H          45.6216   63.1451   51.1894 H       161      M_A    0.0000
   1133 H          46.6986   62.8109   53.2565 H       161      M_A    0.0000
   1134 H          47.9748   63.5479   52.2982 H       161      M_A    0.0000
   1135 C          49.5422   61.8512   52.2300 C.3     162      M_A    0.0000
   1136 C          50.4586   61.8123   53.4493 C.3     162      M_A    0.0000
   1137 O          51.1718   63.0421   53.5789 O.3     162      M_A    0.0000
   1138 H          49.5674   62.8343   51.7478 H       162      M_A    0.0000
   1139 H          49.8935   61.1143   51.4987 H       162      M_A    0.0000
   1140 H          51.1460   60.9569   53.3803 H       162      M_A    0.0000
   1141 H          49.8803   61.6693   54.3706 H       162      M_A    0.0000
   1142 C          51.2198   63.4729   54.9239 C.3     163      M_A    0.0000
   1143 C          52.6514   63.6804   55.4095 C.3     163      M_A    0.0000
   1144 O          52.7908   63.2384   56.7597 O.3     163      M_A    0.0000
   1145 H          50.6911   62.7470   55.5507 H       163      M_A    0.0000
   1146 H          50.6808   64.4247   54.9923 H       163      M_A    0.0000
   1147 H          52.9392   64.7362   55.3025 H       163      M_A    0.0000
   1148 H          53.3598   63.1048   54.8006 H       163      M_A    0.0000
   1149 C          52.3398   64.2174   57.6735 C.3     164      M_A    0.0000
   1150 C          53.1810   64.2458   58.9462 C.3     164      M_A    0.0000
   1151 O          52.3509   64.0985   60.0982 O.3     164      M_A    0.0000
   1152 H          51.2843   64.0342   57.9013 H       164      M_A    0.0000
   1153 H          52.4079   65.1944   57.1816 H       164      M_A    0.0000
   1154 H          53.7681   65.1743   58.9924 H       164      M_A    0.0000
   1155 H          53.9059   63.4222   58.9561 H       164      M_A    0.0000
   1156 C          53.1200   63.9377   61.2727 C.3     165      M_A    0.0000
   1157 C          52.2934   64.1621   62.5354 C.3     165      M_A    0.0000
   1158 O          52.6365   65.4074   63.1434 O.3     165      M_A    0.0000
   1159 H          53.9769   64.6188   61.2348 H       165      M_A    0.0000
   1160 H          53.5107   62.9137   61.2821 H       165      M_A    0.0000
   1161 H          52.4324   63.3244   63.2339 H       165      M_A    0.0000
   1162 H          51.2218   64.1945   62.3026 H       165      M_A    0.0000
   1163 C          51.7604   65.7228   64.2063 C.3     166      M_A    0.0000
   1164 C          51.9636   67.1470   64.7145 C.3     166      M_A    0.0000
   1165 O          52.1573   67.1509   66.1289 O.3     166      M_A    0.0000
   1166 H          51.8975   64.9926   65.0110 H       166      M_A    0.0000
   1167 H          50.7332   65.6210   63.8378 H       166      M_A    0.0000
   1168 H          51.1108   67.7782   64.4260 H       166      M_A    0.0000
   1169 H          52.8521   67.6030   64.2600 H       166      M_A    0.0000
   1170 C          52.2492   68.4671   66.6347 C.3     167      M_A    0.0000
   1171 C          53.3531   68.6051   67.6789 C.3     167      M_A    0.0000
   1172 O          53.0050   69.5944   68.6475 O.3     167      M_A    0.0000
   1173 H          51.2774   68.7607   67.0457 H       167      M_A    0.0000
   1174 H          52.4697   69.1362   65.7951 H       167      M_A    0.0000
   1175 H          54.3095   68.8423   67.1911 H       167      M_A    0.0000
   1176 H          53.5068   67.6603   68.2150 H       167      M_A    0.0000
   1177 C          52.6048   70.8020   68.0325 C.3     168      M_A    0.0000
   1178 C          53.6252   71.9174   68.2396 C.3     168      M_A    0.0000
   1179 O          53.4693   72.5050   69.5312 O.3     168      M_A    0.0000
   1180 H          51.6208   71.0901   68.4175 H       168      M_A    0.0000
   1181 H          52.4983   70.6139   66.9580 H       168      M_A    0.0000
   1182 H          53.5312   72.6703   67.4438 H       168      M_A    0.0000
   1183 H          54.6495   71.5291   68.1769 H       168      M_A    0.0000
   1184 C          54.3113   71.8894   70.4846 C.3     169      M_A    0.0000
   1185 C          54.9549   72.9056   71.4233 C.3     169      M_A    0.0000
   1186 O          56.3466   72.6295   71.5814 O.3     169      M_A    0.0000
   1187 H          55.0705   71.2979   69.9618 H       169      M_A    0.0000
   1188 H          53.7011   71.1971   71.0760 H       169      M_A    0.0000
   1189 H          54.4354   72.9093   72.3924 H       169      M_A    0.0000
   1190 H          54.8653   73.9227   71.0218 H       169      M_A    0.0000
   1191 C          56.8845   73.3067   72.6990 C.3     170      M_A    0.0000
   1192 C          57.6531   74.5613   72.2949 C.3     170      M_A    0.0000
   1193 O          58.8097   74.7257   73.1154 O.3     170      M_A    0.0000
   1194 H          57.5220   72.6167   73.2621 H       170      M_A    0.0000
   1195 H          56.0520   73.5955   73.3508 H       170      M_A    0.0000
   1196 H          56.9969   75.4419   72.3477 H       170      M_A    0.0000
   1197 H          57.9953   74.4940   71.2546 H       170      M_A    0.0000
   1198 C          58.5225   75.4940   74.2660 C.3     171      M_A    0.0000
   1199 C          59.7771   75.8040   75.0772 C.3     171      M_A    0.0000
   1200 O          59.9852   74.8073   76.0778 O.3     171      M_A    0.0000
   1201 H          57.7801   74.9649   74.8730 H       171      M_A    0.0000
   1202 H          58.0708   76.4370   73.9375 H       171      M_A    0.0000
   1203 H          59.7037   76.8072   75.5213 H       171      M_A    0.0000
   1204 H          60.6668   75.8158   74.4352 H       171      M_A    0.0000
   1205 C          60.3782   73.5757   75.5071 C.3     172      M_A    0.0000
   1206 C          61.2931   72.7798   76.4332 C.3     172      M_A    0.0000
   1207 O          62.5738   72.5920   75.8312 O.3     172      M_A    0.0000
   1208 H          60.8611   73.7667   74.5428 H       172      M_A    0.0000
   1209 H          59.4725   72.9896   75.3139 H       172      M_A    0.0000
   1210 H          60.8276   71.8177   76.6913 H       172      M_A    0.0000
   1211 H          61.4501   73.3102   77.3807 H       172      M_A    0.0000
   1212 C          62.5626   71.5143   74.9172 C.3     173      M_A    0.0000
   1213 C          63.3980   70.3359   75.4088 C.3     173      M_A    0.0000
   1214 O          64.7733   70.5239   75.0759 O.3     173      M_A    0.0000
   1215 H          62.9144   71.8688   73.9424 H       173      M_A    0.0000
   1216 H          61.5239   71.1864   74.7955 H       173      M_A    0.0000
   1217 H          63.0104   69.3955   74.9911 H       173      M_A    0.0000
   1218 H          63.3345   70.2377   76.4997 H       173      M_A    0.0000
   1219 C          65.6226   69.8746   76.0000 C.3     174      M_A    0.0000
   1220 C          65.6600   70.5907   77.3468 C.3     174      M_A    0.0000
   1221 O          67.0082   70.8454   77.7410 O.3     174      M_A    0.0000
   1222 H          66.6256   69.7932   75.5676 H       174      M_A    0.0000
   1223 H          65.2428   68.8574   76.1497 H       174      M_A    0.0000
   1224 H          65.1263   70.0003   78.1055 H       174      M_A    0.0000
   1225 H          65.1456   71.5582   77.2914 H       174      M_A    0.0000
   1226 C          67.8160   69.6953   77.5941 C.3     175      M_A    0.0000
   1227 C          69.0839   69.7725   78.4395 C.3     175      M_A    0.0000
   1228 O          70.2436   69.6970   77.6105 O.3     175      M_A    0.0000
   1229 H          68.0554   69.5598   76.5340 H       175      M_A    0.0000
   1230 H          67.2284   68.8275   77.9147 H       175      M_A    0.0000
   1231 H          69.0827   68.9773   79.1988 H       175      M_A    0.0000
   1232 H          69.1331   70.7217   78.9875 H       175      M_A    0.0000
   1233 C          71.0233   68.5582   77.9142 C.3     176      M_A    0.0000
   1234 C          72.5191   68.8497   77.8385 C.3     176      M_A    0.0000
   1235 O          73.2127   67.7545   77.2408 O.3     176      M_A    0.0000
   1236 H          70.7445   67.7434   77.2375 H       176      M_A    0.0000
   1237 H          70.7748   68.2419   78.9338 H       176      M_A    0.0000
   1238 H          72.9132   69.0738   78.8402 H       176      M_A    0.0000
   1239 H          72.7155   69.7374   77.2244 H       176      M_A    0.0000
   1240 C          74.3891   68.1830   76.5854 C.3     177      M_A    0.0000
   1241 C          75.6159   67.3943   77.0338 C.3     177      M_A    0.0000
   1242 O          76.5514   68.2525   77.6867 O.3     177      M_A    0.0000
   1243 H          74.5239   69.2561   76.7586 H       177      M_A    0.0000
   1244 H          74.2474   68.0364   75.5086 H       177      M_A    0.0000
   1245 H          76.0738   66.8838   76.1744 H       177      M_A    0.0000
   1246 H          75.3381   66.6082   77.7469 H       177      M_A    0.0000
   1247 C          77.8252   67.6488   77.7859 C.3     178      M_A    0.0000
   1248 C          77.7429   66.2171   78.3072 C.3     178      M_A    0.0000
   1249 O          79.0296   65.7622   78.7259 O.3     178      M_A    0.0000
   1250 H          78.4645   68.2663   78.4258 H       178      M_A    0.0000
   1251 H          78.2713   67.6365   76.7849 H       178      M_A    0.0000
   1252 H          77.3162   65.5571   77.5382 H       178      M_A    0.0000
   1253 H          77.0736   66.1528   79.1742 H       178      M_A    0.0000
   1254 C          79.5385   64.7747   77.8526 C.3     179      M_A    0.0000
   1255 C          80.1335   63.5907   78.6090 C.3     179      M_A    0.0000
   1256 O          81.3992   63.2289   78.0568 O.3     179      M_A    0.0000
   1257 H          80.2797   65.2324   77.1887 H       179      M_A    0.0000
   1258 H          78.7110   64.4174   77.2291 H       179      M_A    0.0000
   1259 H          79.4343   62.7422   78.5962 H       179      M_A    0.0000
   1260 H          80.2952   63.8407   79.6650 H       179      M_A    0.0000
   1261 C          81.8304   61.9702   78.5328 C.3     180      M_A    0.0000
   1262 C          81.8192   61.8981   80.0569 C.3     180      M_A    0.0000
   1263 O          83.0050   61.2644   80.5367 O.3     180      M_A    0.0000
   1264 H          82.8288   61.7604   78.1345 H       180      M_A    0.0000
   1265 H          81.1488   61.2086   78.1369 H       180      M_A    0.0000
   1266 H          80.9172   61.3750   80.4055 H       180      M_A    0.0000
   1267 H          81.7824   62.9024   80.4971 H       180      M_A    0.0000
   1268 C          83.1570   59.9701   79.9903 C.3     181      M_A    0.0000
   1269 C          84.5177   59.3637   80.3204 C.3     181      M_A    0.0000
   1270 O          85.1910   58.9651   79.1264 O.3     181      M_A    0.0000
   1271 H          82.9979   60.0183   78.9078 H       181      M_A    0.0000
   1272 H          82.3725   59.3318   80.4126 H       181      M_A    0.0000
   1273 H          84.3984   58.5184   81.0134 H       181      M_A    0.0000
   1274 H          85.1589   60.0927   80.8314 H       181      M_A    0.0000
   1275 C          85.6137   60.0835   78.3732 C.3     182      M_A    0.0000
   1276 C          87.0531   59.9383   77.8882 C.3     182      M_A    0.0000
   1277 O          87.9675   60.3493   78.9045 O.3     182      M_A    0.0000
   1278 H          85.4895   60.9887   78.9770 H       182      M_A    0.0000
   1279 H          84.9537   60.1726   77.5027 H       182      M_A    0.0000
   1280 H          87.2011   60.5114   76.9616 H       182      M_A    0.0000
   1281 H          87.2815   58.8933   77.6439 H       182      M_A    0.0000
   1282 C          89.2068   59.6805   78.7865 C.3     183      M_A    0.0000
   1283 C          89.1116   58.2168   79.2070 C.3     183      M_A    0.0000
   1284 O          90.3252   57.7949   79.8291 O.3     183      M_A    0.0000
   1285 H          89.9584   60.2137   79.3783 H       183      M_A    0.0000
   1286 H          89.5168   59.7282   77.7363 H       183      M_A    0.0000
   1287 H          88.8675   57.5877   78.3389 H       183      M_A    0.0000
   1288 H          88.3018   58.0686   79.9323 H       183      M_A    0.0000
   1289 C          91.0339   56.8829   79.0149 C.3     184      M_A    0.0000
   1290 C          92.4990   56.7659   79.4247 C.3     184      M_A    0.0000
   1291 O          93.3129   56.4632   78.2917 O.3     184      M_A    0.0000
   1292 H          90.9396   57.1905   77.9680 H       184      M_A    0.0000
   1293 H          90.5580   55.9008   79.1159 H       184      M_A    0.0000
   1294 H          92.6132   56.0080   80.2130 H       184      M_A    0.0000
   1295 H          92.8644   57.7093   79.8491 H       184      M_A    0.0000
   1296 C          93.9396   55.2039   78.4266 C.3     185      M_A    0.0000
   1297 C          95.2968   55.1604   77.7307 C.3     185      M_A    0.0000
   1298 O          95.4069   53.9897   76.9212 O.3     185      M_A    0.0000
   1299 H          93.2709   54.4285   78.0378 H       185      M_A    0.0000
   1300 H          94.0833   55.0118   79.4961 H       185      M_A    0.0000
   1301 H          96.1059   55.2105   78.4735 H       185      M_A    0.0000
   1302 H          95.4285   56.0284   77.0726 H       185      M_A    0.0000
   1303 C          96.7492   53.7342   76.5612 C.3     186      M_A    0.0000
   1304 C          97.4280   54.9641   75.9656 C.3     186      M_A    0.0000
   1305 O          98.8210   54.7211   75.7692 O.3     186      M_A    0.0000
   1306 H          96.7777   52.8903   75.8637 H       186      M_A    0.0000
   1307 H          97.2897   53.4345   77.4664 H       186      M_A    0.0000
   1308 H          97.2617   55.8390   76.6104 H       186      M_A    0.0000
   1309 H          96.9974   55.2154   74.9882 H       186      M_A    0.0000
   1310 C          99.5507   54.8990   76.9662 C.3     187      M_A    0.0000
   1311 C          99.5712   56.3573   77.4148 C.3     187      M_A    0.0000
   1312 O         100.9103   56.7865   77.6605 O.3     187      M_A    0.0000
   1313 H         100.5665   54.5143   76.8259 H       187      M_A    0.0000
   1314 H          99.0722   54.2950   77.7456 H       187      M_A    0.0000
   1315 H          98.9392   56.4895   78.3048 H       187      M_A    0.0000
   1316 H          99.1532   57.0122   76.6401 H       187      M_A    0.0000
   1317 C         100.9937   58.1942   77.7515 C.3     188      M_A    0.0000
   1318 C         102.3881   58.6617   78.1580 C.3     188      M_A    0.0000
   1319 O         102.3755   59.1746   79.4902 O.3     188      M_A    0.0000
   1320 H         100.2357   58.5523   78.4562 H       188      M_A    0.0000
   1321 H         100.7535   58.6104   76.7664 H       188      M_A    0.0000
   1322 H         102.7602   59.4110   77.4445 H       188      M_A    0.0000
   1323 H         103.1037   57.8304   78.1329 H       188      M_A    0.0000
   1324 C         103.5162   58.7611   80.2145 C.3     189      M_A    0.0000
   1325 C         104.5748   59.8572   80.2931 C.3     189      M_A    0.0000
   1326 O         105.7311   59.4910   79.5403 O.3     189      M_A    0.0000
   1327 H         103.9209   57.8527   79.7557 H       189      M_A    0.0000
   1328 H         103.1954   58.5045   81.2306 H       189      M_A    0.0000
   1329 H         104.8298   60.0640   81.3424 H       189      M_A    0.0000
   1330 H         104.1964   60.7990   79.8766 H       189      M_A    0.0000
   1331 C         106.6186   60.5807   79.3925 C.3     190      M_A    0.0000
   1332 C         107.7513   60.2707   78.4184 C.3     190      M_A    0.0000
   1333 O         109.0147   60.5866   79.0032 O.3     190      M_A    0.0000
   1334 H         107.0090   60.8596   80.3771 H       190      M_A    0.0000
   1335 H         106.0451   61.4328   79.0099 H       190      M_A    0.0000
   1336 H         107.6001   60.8148   77.4750 H       190      M_A    0.0000
   1337 H         107.7662   59.2045   78.1601 H       190      M_A    0.0000
   1338 C         109.6320   61.6740   78.3449 C.3     191      M_A    0.0000
   1339 C         110.9729   62.0399   78.9743 C.3     191      M_A    0.0000
   1340 O         110.9822   63.4113   79.3705 O.3     191      M_A    0.0000
   1341 H         108.9474   62.5289   78.3481 H       191      M_A    0.0000
   1342 H         109.7974   61.3858   77.3005 H       191      M_A    0.0000
   1343 H         111.7928   61.8201   78.2754 H       191      M_A    0.0000
   1344 H         111.1630   61.4375   79.8714 H       191      M_A    0.0000
   1345 C         111.7519   63.6068   80.5394 C.3     192      M_A    0.0000
   1346 C         113.0822   64.2927   80.2428 C.3     192      M_A    0.0000
   1347 O         114.1708   63.4054   80.4991 O.3     192      M_A    0.0000
   1348 H         111.9063   62.6405   81.0313 H       192      M_A    0.0000
   1349 H         111.1723   64.2378   81.2229 H       192      M_A    0.0000
   1350 H         113.1723   65.2168   80.8317 H       192      M_A    0.0000
   1351 H         113.1433   64.5918   79.1890 H       192      M_A    0.0000
   1352 C         115.3876   63.9221   79.9999 C.3     193      M_A    0.0000
   1353 C         116.5631   63.6163   80.9234 C.3     193      M_A    0.0000
   1354 O         117.3736   64.7776   81.1031 O.3     193      M_A    0.0000
   1355 H         115.2797   65.0003   79.8411 H       193      M_A    0.0000
   1356 H         115.5744   63.4604   79.0235 H       193      M_A    0.0000
   1357 H         117.1504   62.7766   80.5249 H       193      M_A    0.0000
   1358 H         116.2124   63.3039   81.9150 H       193      M_A    0.0000
   1359 C         118.6860   64.4360   81.5002 C.3     194      M_A    0.0000
   1360 C         119.4122   65.6089   82.1522 C.3     194      M_A    0.0000
   1361 O         120.4604   66.0814   81.3060 O.3     194      M_A    0.0000
   1362 H         119.2373   64.0642   80.6300 H       194      M_A    0.0000
   1363 H         118.6164   63.6157   82.2238 H       194      M_A    0.0000
   1364 H         119.7970   65.3156   83.1396 H       194      M_A    0.0000
   1365 H         118.7266   66.4478   82.3255 H       194      M_A    0.0000
   1366 C         120.6373   67.4776   81.4322 C.3     195      M_A    0.0000
   1367 C         121.9074   67.8282   82.2018 C.3     195      M_A    0.0000
   1368 O         121.6147   68.7373   83.2628 O.3     195      M_A    0.0000
   1369 H         119.7523   67.9080   81.9129 H       195      M_A    0.0000
   1370 H         120.7056   67.9012   80.4236 H       195      M_A    0.0000
   1371 H         122.6633   68.2412   81.5185 H       195      M_A    0.0000
   1372 H         122.3543   66.9324   82.6506 H       195      M_A    0.0000
   1373 C         121.5314   70.0683   82.7954 C.3     196      M_A    0.0000
   1374 C         120.8670   70.9930   83.8110 C.3     196      M_A    0.0000
   1375 O         121.1773   72.3566   83.5244 O.3     196      M_A    0.0000
   1376 H         120.9946   70.0788   81.8408 H       196      M_A    0.0000
   1377 H         122.5509   70.4235   82.6063 H       196      M_A    0.0000
   1378 H         121.1732   70.7191   84.8309 H       196      M_A    0.0000
   1379 H         119.7750   70.8909   83.7794 H       196      M_A    0.0000
   1380 C         122.4473   72.7153   84.0297 C.3     197      M_A    0.0000
   1381 C         122.4099   74.0370   84.7911 C.3     197      M_A    0.0000
   1382 O         123.5059   74.8671   84.4069 O.3     197      M_A    0.0000
   1383 H         123.1628   72.7563   83.2015 H       197      M_A    0.0000
   1384 H         122.7748   71.9223   84.7117 H       197      M_A    0.0000
   1385 H         122.4098   73.8509   85.8747 H       197      M_A    0.0000
   1386 H         121.4873   74.5895   84.5734 H       197      M_A    0.0000
   1387 C         124.7363   74.1798   84.5101 C.3     198      M_A    0.0000
   1388 C         125.7016   74.8713   85.4683 C.3     198      M_A    0.0000
   1389 O         126.3771   75.9434   84.8109 O.3     198      M_A    0.0000
   1390 H         125.1745   74.0796   83.5114 H       198      M_A    0.0000
   1391 H         124.5282   73.1705   84.8836 H       198      M_A    0.0000
   1392 H         126.4143   74.1426   85.8805 H       198      M_A    0.0000
   1393 H         125.1659   75.2972   86.3258 H       198      M_A    0.0000
   1394 C         126.4789   77.0795   85.6451 C.3     199      M_A    0.0000
   1395 C         126.8967   78.3255   84.8698 C.3     199      M_A    0.0000
   1396 O         127.9675   78.9940   85.5363 O.3     199      M_A    0.0000
   1397 H         127.1819   76.8648   86.4570 H       199      M_A    0.0000
   1398 H         125.4956   77.2556   86.0960 H       199      M_A    0.0000
   1399 H         126.0339   78.9926   84.7302 H       199      M_A    0.0000
   1400 H         127.2487   78.0626   83.8644 H       199      M_A    0.0000
   1401 C         128.1835   80.2845   85.0026 C.3     200      M_A    0.0000
   1402 C         129.6624   80.5605   84.7482 C.3     200      M_A    0.0000
   1403 O         130.1796   81.4599   85.7287 O.3     200      M_A    0.0000
   1404 H         127.7536   81.0286   85.6816 H       200      M_A    0.0000
   1405 H         127.6418   80.3511   84.0521 H       200      M_A    0.0000
   1406 H         129.8059   80.9523   83.7310 H       200      M_A    0.0000
   1407 H         130.2502   79.6360   84.8081 H       200      M_A    0.0000
   1408 C         131.4125   82.0168   85.3206 C.3     201      M_A    0.0000
   1409 C         132.5142   80.9654   85.2260 C.3     201      M_A    0.0000
   1410 O         133.7994   81.5749   85.3464 O.3     201      M_A    0.0000
   1411 H         131.6895   82.8183   86.0137 H       201      M_A    0.0000
   1412 H         131.2677   82.4685   84.3325 H       201      M_A    0.0000
   1413 H         132.4241   80.4050   84.2843 H       201      M_A    0.0000
   1414 H         132.4234   80.2279   86.0332 H       201      M_A    0.0000
   1415 C         134.7933   80.8218   84.6816 C.3     202      M_A    0.0000
   1416 C         135.3932   81.5790   83.5005 C.3     202      M_A    0.0000
   1417 O         135.7344   80.6762   82.4486 O.3     202      M_A    0.0000
   1418 H         134.3636   79.8666   84.3617 H       202      M_A    0.0000
   1419 H         135.5888   80.6024   85.4030 H       202      M_A    0.0000
   1420 H         136.2671   82.1609   83.8271 H       202      M_A    0.0000
   1421 H         134.6761   82.3024   83.0929 H       202      M_A    0.0000
   1422 C         136.9821   80.0558   82.6838 C.3     203      M_A    0.0000
   1423 C         137.5638   79.4372   81.4161 C.3     203      M_A    0.0000
   1424 O         137.4361   78.0158   81.4488 O.3     203      M_A    0.0000
   1425 H         136.8647   79.3047   83.4722 H       203      M_A    0.0000
   1426 H         137.6741   80.8205   83.0549 H       203      M_A    0.0000
   1427 H         138.6129   79.7417   81.2921 H       203      M_A    0.0000
   1428 H         137.0320   79.7944   80.5253 H       203      M_A    0.0000
   1429 C         136.9942   77.5074   80.2065 C.3     204      M_A    0.0000
   1430 C         135.5436   77.8812   79.9165 C.3     204      M_A    0.0000
   1431 O         135.1497   77.3988   78.6320 O.3     204      M_A    0.0000
   1432 H         137.1323   76.4210   80.1955 H       204      M_A    0.0000
   1433 H         137.6329   77.9307   79.4228 H       204      M_A    0.0000
   1434 H         135.4096   78.9698   79.9931 H       204      M_A    0.0000
   1435 H         134.8677   77.4347   80.6565 H       204      M_A    0.0000
   1436 C         135.3723   78.3657   77.6258 C.3     205      M_A    0.0000
   1437 C         134.4410   79.5661   77.7669 C.3     205      M_A    0.0000
   1438 O         134.7037   80.5263   76.7437 O.3     205      M_A    0.0000
   1439 H         135.2612   77.8923   76.6444 H       205      M_A    0.0000
   1440 H         136.4095   78.7095   77.7124 H       205      M_A    0.0000
   1441 H         134.5431   80.0100   78.7676 H       205      M_A    0.0000
   1442 H         133.3913   79.2620   77.6703 H       205      M_A    0.0000
   1443 C         135.8074   81.3447   77.0735 C.3     206      M_A    0.0000
   1444 C         136.2514   82.2108   75.8983 C.3     206      M_A    0.0000
   1445 O         137.6458   82.5022   75.9901 O.3     206      M_A    0.0000
   1446 H         136.6273   80.7123   77.4304 H       206      M_A    0.0000
   1447 H         135.5076   81.9972   77.9015 H       206      M_A    0.0000
   1448 H         135.6522   83.1318   75.8580 H       206      M_A    0.0000
   1449 H         136.0859   81.6936   74.9450 H       206      M_A    0.0000
   1450 C         137.9200   83.8393   75.6241 C.3     207      M_A    0.0000
   1451 C         139.3948   84.0540   75.2968 C.3     207      M_A    0.0000
   1452 O         139.8291   85.3327   75.7598 O.3     207      M_A    0.0000
   1453 H         137.5930   84.5047   76.4302 H       207      M_A    0.0000
   1454 H         137.3218   84.0751   74.7365 H       207      M_A    0.0000
   1455 H         139.5640   83.9414   74.2162 H       207      M_A    0.0000
   1456 H         140.0199   83.2974   75.7870 H       207      M_A    0.0000
   1457 C         141.1776   85.2996   76.1809 C.3     208      M_A    0.0000
   1458 C         142.0108   86.3972   75.5258 C.3     208      M_A    0.0000
   1459 O         143.2617   85.8757   75.0773 O.3     208      M_A    0.0000
   1460 H         141.5935   84.3086   75.9702 H       208      M_A    0.0000
   1461 H         141.1949   85.4421   77.2675 H       208      M_A    0.0000
   1462 H         142.1538   87.2335   76.2251 H       208      M_A    0.0000
   1463 H         141.4951   86.8121   74.6508 H       208      M_A    0.0000
   1464 C         143.7128   86.5414   73.9153 C.3     209      M_A    0.0000
   1465 C         144.8951   87.4620   74.2036 C.3     209      M_A    0.0000
   1466 O         145.0460   88.4244   73.1600 O.3     209      M_A    0.0000
   1467 H         142.8779   87.0965   73.4745 H       209      M_A    0.0000
   1468 H         144.0244   85.7806   73.1906 H       209      M_A    0.0000
   1469 H         145.8123   86.8709   74.3382 H       209      M_A    0.0000
   1470 H         144.7439   88.0136   75.1398 H       209      M_A    0.0000
   1471 C         145.1984   87.8020   71.9006 C.3     210      M_A    0.0000
   1472 C         145.8440   88.7301   70.8759 C.3     210      M_A    0.0000
   1473 O         145.0272   88.8333   69.7096 O.3     210      M_A    0.0000
   1474 H         144.2204   87.4507   71.5549 H       210      M_A    0.0000
   1475 H         145.8382   86.9222   72.0347 H       210      M_A    0.0000
   1476 H         146.8544   88.3757   70.6263 H       210      M_A    0.0000
   1477 H         145.9642   89.7417   71.2833 H       210      M_A    0.0000
   1478 C         145.8095   88.9033   68.5349 C.3     211      M_A    0.0000
   1479 C         146.9435   89.9166   68.6598 C.3     211      M_A    0.0000
   1480 O         146.6845   91.0604   67.8458 O.3     211      M_A    0.0000
   1481 H         145.1592   89.1404   67.6861 H       211      M_A    0.0000
   1482 H         146.2389   87.9109   68.3562 H       211      M_A    0.0000
   1483 H         147.9024   89.4473   68.3966 H       211      M_A    0.0000
   1484 H         147.0453   90.2662   69.6948 H       211      M_A    0.0000
   1485 C         147.8564   91.5084   67.1955 C.3     212      M_A    0.0000
   1486 C         147.6039   92.7541   66.3513 C.3     212      M_A    0.0000
   1487 O         147.9884   92.5262   64.9955 O.3     212      M_A    0.0000
   1488 H         148.2607   90.6931   66.5860 H       212      M_A    0.0000
   1489 H         148.5991   91.7464   67.9655 H       212      M_A    0.0000
   1490 H         148.1362   93.6162   66.7784 H       212      M_A    0.0000
   1491 H         146.5392   93.0188   66.3507 H       212      M_A    0.0000
   1492 C         148.1106   93.7397   64.2816 C.3     213      M_A    0.0000
   1493 C         146.7520   94.3265   63.9102 C.3     213      M_A    0.0000
   1494 O         146.7126   94.6581   62.5223 O.3     213      M_A    0.0000
   1495 H         148.7247   93.5699   63.3908 H       213      M_A    0.0000
   1496 H         148.6429   94.4541   64.9200 H       213      M_A    0.0000
   1497 H         146.5329   95.2029   64.5371 H       213      M_A    0.0000
   1498 H         145.9477   93.6044   64.0984 H       213      M_A    0.0000
   1499 C         147.3844   95.8737   62.2617 C.3     214      M_A    0.0000
   1500 C         146.9035   96.5302   60.9710 C.3     214      M_A    0.0000
   1501 O         147.8076   96.2533   59.9015 O.3     214      M_A    0.0000
   1502 H         148.4631   95.6865   62.2318 H       214      M_A    0.0000
   1503 H         147.1889   96.5531   63.0992 H       214      M_A    0.0000
   1504 H         146.7790   97.6126   61.1193 H       214      M_A    0.0000
   1505 H         145.9193   96.1444   60.6774 H       214      M_A    0.0000
   1506 C         147.1198   96.0321   58.6871 C.3     215      M_A    0.0000
   1507 C         147.6601   96.9008   57.5549 C.3     215      M_A    0.0000
   1508 O         146.5972   97.3364   56.7074 O.3     215      M_A    0.0000
   1509 H         146.0504   96.2084   58.8447 H       215      M_A    0.0000
   1510 H         147.2455   94.9777   58.4158 H       215      M_A    0.0000
   1511 H         148.4249   96.3517   56.9871 H       215      M_A    0.0000
   1512 H         148.1541   97.7975   57.9496 H       215      M_A    0.0000
   1513 C         147.0325   97.4962   55.3725 C.3     216      M_A    0.0000
   1514 C         145.8831   97.8455   54.4317 C.3     216      M_A    0.0000
   1515 O         146.0952   97.2646   53.1451 O.3     216      M_A    0.0000
   1516 H         147.5425   96.5818   55.0510 H       216      M_A    0.0000
   1517 H         147.7667   98.3097   55.3526 H       216      M_A    0.0000
   1518 H         145.7668   98.9368   54.3635 H       216      M_A    0.0000
   1519 H         144.9308   97.4576   54.8144 H       216      M_A    0.0000
   1520 C         147.4718   97.1765   52.8380 C.3     217      M_A    0.0000
   1521 C         147.7266   97.1934   51.3337 C.3     217      M_A    0.0000
   1522 O         148.8269   96.3462   51.0030 O.3     217      M_A    0.0000
   1523 H         147.8835   96.2722   53.2986 H       217      M_A    0.0000
   1524 H         147.9742   98.0381   53.2924 H       217      M_A    0.0000
   1525 H         147.8974   98.2235   50.9893 H       217      M_A    0.0000
   1526 H         146.8517   96.8255   50.7832 H       217      M_A    0.0000
   1527 C         149.9868   96.6975   51.7297 C.3     218      M_A    0.0000
   1528 C         150.8568   97.6977   50.9741 C.3     218      M_A    0.0000
   1529 O         152.2336   97.3316   51.0640 O.3     218      M_A    0.0000
   1530 H         150.5476   95.7877   51.9693 H       218      M_A    0.0000
   1531 H         149.6677   97.1490   52.6760 H       218      M_A    0.0000
   1532 H         150.6874   98.7140   51.3580 H       218      M_A    0.0000
   1533 H         150.5923   97.7224   49.9096 H       218      M_A    0.0000
   1534 C         153.0715   98.4694   51.0785 C.3     219      M_A    0.0000
   1535 C         152.6347   99.5170   50.0588 C.3     219      M_A    0.0000
   1536 O         153.7723  100.1223   49.4445 O.3     219      M_A    0.0000
   1537 H         154.1055   98.1540   50.9031 H       219      M_A    0.0000
   1538 H         153.0248   98.9095   52.0812 H       219      M_A    0.0000
   1539 H         151.9920  100.2690   50.5388 H       219      M_A    0.0000
   1540 H         152.0339   99.0621   49.2613 H       219      M_A    0.0000
   1541 C         154.3176  101.1418   50.2570 C.3     220      M_A    0.0000
   1542 C         154.4037  102.4766   49.5229 C.3     220      M_A    0.0000
   1543 O         155.7326  102.7053   49.0542 O.3     220      M_A    0.0000
   1544 H         155.3022  100.8241   50.6163 H       220      M_A    0.0000
   1545 H         153.6677  101.2594   51.1317 H       220      M_A    0.0000
   1546 H         154.0647  103.2924   50.1776 H       220      M_A    0.0000
   1547 H         153.7407  102.4874   48.6488 H       220      M_A    0.0000
   1548 C         155.7340  103.2798   47.7632 C.3     221      M_A    0.0000
   1549 C         156.0044  104.7810   47.8031 C.3     221      M_A    0.0000
   1550 O         155.2399  105.4539   46.8029 O.3     221      M_A    0.0000
   1551 H         154.7781  103.0632   47.2746 H       221      M_A    0.0000
   1552 H         156.5229  102.7929   47.1785 H       221      M_A    0.0000
   1553 H         157.0798  104.9762   47.6832 H       221      M_A    0.0000
   1554 H         155.7206  105.2053   48.7743 H       221      M_A    0.0000
   1555 C         155.2604  104.7519   45.5766 C.3     222      M_A    0.0000
   1556 C         155.6671  105.6467   44.4095 C.3     222      M_A    0.0000
   1557 O         154.9643  105.2736   43.2243 O.3     222      M_A    0.0000
   1558 H         154.2765  104.3022   45.4058 H       222      M_A    0.0000
   1559 H         155.9865  103.9360   45.6676 H       222      M_A    0.0000
   1560 H         156.7554  105.6034   44.2595 H       222      M_A    0.0000
   1561 H         155.4263  106.6967   44.6174 H       222      M_A    0.0000
   1562 C         154.7133  106.3921   42.3980 C.3     223      M_A    0.0000
   1563 C         154.9955  106.0950   40.9283 C.3     223      M_A    0.0000
   1564 O         155.7057  107.1772   40.3263 O.3     223      M_A    0.0000
   1565 H         155.3108  107.2391   42.7519 H       223      M_A    0.0000
   1566 H         153.6569  106.6625   42.5087 H       223      M_A    0.0000
   1567 H         154.0560  105.8879   40.3958 H       223      M_A    0.0000
   1568 H         155.6148  105.1957   40.8214 H       223      M_A    0.0000
   1569 C         154.9201  108.3510   40.2831 C.3     224      M_A    0.0000
   1570 C         155.0764  109.0982   38.9620 C.3     224      M_A    0.0000
   1571 O         155.7303  110.3501   39.1694 O.3     224      M_A    0.0000
   1572 H         155.1852  108.9899   41.1323 H       224      M_A    0.0000
   1573 H         153.8706  108.0587   40.4031 H       224      M_A    0.0000
   1574 H         154.0954  109.2337   38.4842 H       224      M_A    0.0000
   1575 H         155.6864  108.5222   38.2550 H       224      M_A    0.0000
   1576 C         156.3945  110.7866   38.0009 C.3     225      M_A    0.0000
   1577 C         155.7307  112.0166   37.3887 C.3     225      M_A    0.0000
   1578 O         155.6082  111.8673   35.9743 O.3     225      M_A    0.0000
   1579 H         156.4345  109.9605   37.2829 H       225      M_A    0.0000
   1580 H         157.4256  111.0389   38.2737 H       225      M_A    0.0000
   1581 H         156.2978  112.9222   37.6476 H       225      M_A    0.0000
   1582 H         154.7207  112.1595   37.7926 H       225      M_A    0.0000
   1583 C         156.8149  112.1905   35.3137 C.3     226      M_A    0.0000
   1584 C         156.6318  112.2959   33.8026 C.3     226      M_A    0.0000
   1585 O         157.8132  111.8693   33.1243 O.3     226      M_A    0.0000
   1586 H         157.5733  111.4427   35.5688 H       226      M_A    0.0000
   1587 H         157.1606  113.1573   35.6972 H       226      M_A    0.0000
   1588 H         156.3600  113.3243   33.5240 H       226      M_A    0.0000
   1589 H         155.8081  111.6565   33.4614 H       226      M_A    0.0000
   1590 C         157.6061  111.7832   31.7291 C.3     227      M_A    0.0000
   1591 C         158.8695  112.1133   30.9397 C.3     227      M_A    0.0000
   1592 O         158.9666  113.5198   30.7160 O.3     227      M_A    0.0000
   1593 H         156.7804  112.4458   31.4489 H       227      M_A    0.0000
   1594 H         157.3008  110.7565   31.4965 H       227      M_A    0.0000
   1595 H         158.8813  111.5559   29.9920 H       227      M_A    0.0000
   1596 H         159.7676  111.8053   31.4895 H       227      M_A    0.0000
   1597 C         159.5835  113.8051   29.4770 C.3     228      M_A    0.0000
   1598 C         161.0968  113.9488   29.6088 C.3     228      M_A    0.0000
   1599 O         161.4615  115.3249   29.7145 O.3     228      M_A    0.0000
   1600 H         159.1356  114.7111   29.0551 H       228      M_A    0.0000
   1601 H         159.3641  112.9774   28.7929 H       228      M_A    0.0000
   1602 H         161.5993  113.4661   28.7582 H       228      M_A    0.0000
   1603 H         161.4622  113.4418   30.5106 H       228      M_A    0.0000
   1604 C         162.6089  115.4953   30.5216 C.3     229      M_A    0.0000
   1605 C         163.1009  116.9396   30.5225 C.3     229      M_A    0.0000
   1606 O         164.5201  116.9850   30.3756 O.3     229      M_A    0.0000
   1607 H         163.3922  114.8111   30.1782 H       229      M_A    0.0000
   1608 H         162.3454  115.2098   31.5465 H       229      M_A    0.0000
   1609 H         162.7774  117.4502   31.4410 H       229      M_A    0.0000
   1610 H         162.6660  117.5030   29.6874 H       229      M_A    0.0000
   1611 C         164.9451  118.2204   29.8370 C.3     230      M_A    0.0000
   1612 C         166.4636  118.3668   29.8646 C.3     230      M_A    0.0000
   1613 O         166.8378  119.7342   29.6972 O.3     230      M_A    0.0000
   1614 H         164.4594  119.0350   30.3848 H       230      M_A    0.0000
   1615 H         164.6030  118.2702   28.7970 H       230      M_A    0.0000
   1616 H         166.9203  117.7300   29.0934 H       230      M_A    0.0000
   1617 H         166.8731  118.0294   30.8250 H       230      M_A    0.0000
   1618 C         167.2488  119.9994   28.3715 C.3     231      M_A    0.0000
   1619 C         168.5537  119.2898   28.0222 C.3     231      M_A    0.0000
   1620 O         169.3057  120.0587   27.0835 O.3     231      M_A    0.0000
   1621 H         167.3390  121.0824   28.2352 H       231      M_A    0.0000
   1622 H         166.4609  119.6449   27.6971 H       231      M_A    0.0000
   1623 H         168.3459  118.2810   27.6375 H       231      M_A    0.0000
   1624 H         169.1791  119.1568   28.9138 H       231      M_A    0.0000
   1625 C         168.8441  119.8584   25.7630 C.3     232      M_A    0.0000
   1626 C         169.6219  120.6932   24.7500 C.3     232      M_A    0.0000
   1627 O         168.7459  121.5799   24.0542 O.3     232      M_A    0.0000
   1628 H         167.7729  120.0830   25.7210 H       232      M_A    0.0000
   1629 H         168.9700  118.7973   25.5193 H       232      M_A    0.0000
   1630 H         170.1630  120.0370   24.0531 H       232      M_A    0.0000
   1631 H         170.3825  121.3070   25.2486 H       232      M_A    0.0000
   1632 C         169.2068  121.8396   22.7438 C.3     233      M_A    0.0000
   1633 C         170.7152  122.0653   22.7000 C.3     233      M_A    0.0000
   1634 O         171.1244  122.4592   21.3903 O.3     233      M_A    0.0000
   1635 H         168.6661  122.7018   22.3391 H       233      M_A    0.0000
   1636 H         168.9599  120.9717   22.1216 H       233      M_A    0.0000
   1637 H         171.2442  121.1592   23.0286 H       233      M_A    0.0000
   1638 H         171.0129  122.8637   23.3912 H       233      M_A    0.0000
   1639 C         172.4891  122.1694   21.1657 C.3     234      M_A    0.0000
   1640 C         173.3353  122.3854   22.4169 C.3     234      M_A    0.0000
   1641 O         174.7027  122.0679   22.1573 O.3     234      M_A    0.0000
   1642 H         172.8519  122.7810   20.3328 H       234      M_A    0.0000
   1643 H         172.5652  121.1187   20.8633 H       234      M_A    0.0000
   1644 H         172.9380  121.7896   23.2513 H       234      M_A    0.0000
   1645 H         173.2970  123.4330   22.7408 H       234      M_A    0.0000
   1646 C         174.8204  120.9971   21.2428 C.3     235      M_A    0.0000
   1647 C         174.6398  119.6416   21.9196 C.3     235      M_A    0.0000
   1648 O         175.6465  118.7273   21.4854 O.3     235      M_A    0.0000
   1649 H         175.7912  121.0617   20.7399 H       235      M_A    0.0000
   1650 H         174.0432  121.1187   20.4796 H       235      M_A    0.0000
   1651 H         173.6316  119.2499   21.7216 H       235      M_A    0.0000
   1652 H         174.7265  119.7323   23.0095 H       235      M_A    0.0000
   1653 C         175.9123  118.8682   20.1047 C.3     236      M_A    0.0000
   1654 C         176.1381  117.5218   19.4232 C.3     236      M_A    0.0000
   1655 O         177.4751  117.0701   19.6379 O.3     236      M_A    0.0000
   1656 H         176.7765  119.5279   19.9726 H       236      M_A    0.0000
   1657 H         175.0475  119.3585   19.6433 H       236      M_A    0.0000
   1658 H         175.9086  117.5962   18.3504 H       236      M_A    0.0000
   1659 H         175.4639  116.7578   19.8302 H       236      M_A    0.0000
   1660 C         177.9873  116.4097   18.4984 C.3     237      M_A    0.0000
   1661 C         178.6662  115.0909   18.8559 C.3     237      M_A    0.0000
   1662 O         180.0812  115.2621   18.9366 O.3     237      M_A    0.0000
   1663 H         178.6776  117.0810   17.9765 H       237      M_A    0.0000
   1664 H         177.1492  116.2052   17.8224 H       237      M_A    0.0000
   1665 H         178.3984  114.3155   18.1237 H       237      M_A    0.0000
   1666 H         178.3235  114.7247   19.8317 H       237      M_A    0.0000
   1667 C         180.5553  116.1314   17.9284 C.3     238      M_A    0.0000
   1668 C         181.9413  115.7320   17.4310 C.3     238      M_A    0.0000
   1669 O         182.9219  116.6693   17.8757 O.3     238      M_A    0.0000
   1670 H         180.5532  117.1575   18.3113 H       238      M_A    0.0000
   1671 H         179.8517  116.0895   17.0890 H       238      M_A    0.0000
   1672 H         181.9405  115.6439   16.3351 H       238      M_A    0.0000
   1673 H         182.2288  114.7468   17.8191 H       238      M_A    0.0000
   1674 C         184.1701  116.0454   18.0988 C.3     239      M_A    0.0000
   1675 C         185.1935  116.4091   17.0271 C.3     239      M_A    0.0000
   1676 O         185.7706  115.2303   16.4656 O.3     239      M_A    0.0000
   1677 H         184.0231  114.9614   18.1534 H       239      M_A    0.0000
   1678 H         184.5440  116.3786   19.0737 H       239      M_A    0.0000
   1679 H         185.9645  117.0706   17.4476 H       239      M_A    0.0000
   1680 H         184.7226  116.9666   16.2078 H       239      M_A    0.0000
   1681 C         186.8672  114.7757   17.2323 C.3     240      M_A    0.0000
   1682 C         187.8284  113.9227   16.4098 C.3     240      M_A    0.0000
   1683 O         188.6299  113.1068   17.2641 O.3     240      M_A    0.0000
   1684 H         186.4918  114.2230   18.1001 H       240      M_A    0.0000
   1685 H         187.4044  115.6547   17.6063 H       240      M_A    0.0000
   1686 H         188.4513  114.5635   15.7692 H       240      M_A    0.0000
   1687 H         187.2802  113.2529   15.7355 H       240      M_A    0.0000
   1688 C         189.9330  112.9377   16.7443 C.3     241      M_A    0.0000
   1689 C         190.4238  111.4995   16.8819 C.3     241      M_A    0.0000
   1690 O         191.8429  111.4393   16.7395 O.3     241      M_A    0.0000
   1691 H         190.6111  113.6365   17.2457 H       241      M_A    0.0000
   1692 H         189.9090  113.2041   15.6814 H       241      M_A    0.0000
   1693 H         189.9205  110.8549   16.1470 H       241      M_A    0.0000
   1694 H         190.1752  111.0927   17.8700 H       241      M_A    0.0000
   1695 C         192.2603  110.1829   16.2452 C.3     242      M_A    0.0000
   1696 C         193.3230  109.5411   17.1323 C.3     242      M_A    0.0000
   1697 O         194.2760  108.8335   16.3393 O.3     242      M_A    0.0000
   1698 H         192.6231  110.3052   15.2191 H       242      M_A    0.0000
   1699 H         191.3834  109.5262   16.2107 H       242      M_A    0.0000
   1700 H         192.8503  108.8807   17.8734 H       242      M_A    0.0000
   1701 H         193.8703  110.3021   17.7024 H       242      M_A    0.0000
   1702 C         194.2184  107.4423   16.5805 C.3     243      M_A    0.0000
   1703 C         195.5901  106.7831   16.4700 C.3     243      M_A    0.0000
   1704 O         195.8080  106.3002   15.1444 O.3     243      M_A    0.0000
   1705 H         193.5045  106.9883   15.8850 H       243      M_A    0.0000
   1706 H         193.8336  107.2919   17.5957 H       243      M_A    0.0000
   1707 H         195.6839  105.9756   17.2103 H       243      M_A    0.0000
   1708 H         196.3896  107.5005   16.6938 H       243      M_A    0.0000
   1709 C         197.1366  105.8522   14.9690 C.3     244      M_A    0.0000
   1710 C         198.1577  106.9200   15.3505 C.3     244      M_A    0.0000
   1711 O         199.3899  106.7022   14.6634 O.3     244      M_A    0.0000
   1712 H         197.2710  105.5297   13.9310 H       244      M_A    0.0000
   1713 H         197.2841  104.9755   15.6102 H       244      M_A    0.0000
   1714 H         198.3042  106.9329   16.4401 H       244      M_A    0.0000
   1715 H         197.8007  107.9204   15.0757 H       244      M_A    0.0000
   1716 C         200.3881  106.2111   15.5348 C.3     245      M_A    0.0000
   1717 C         201.6956  105.9201   14.8040 C.3     245      M_A    0.0000
   1718 O         202.1829  104.6230   15.1475 O.3     245      M_A    0.0000
   1719 H         200.0111  105.3165   16.0419 H       245      M_A    0.0000
   1720 H         200.5719  106.9735   16.3004 H       245      M_A    0.0000
   1721 H         202.4380  106.6989   15.0300 H       245      M_A    0.0000
   1722 H         201.5503  105.9391   13.7167 H       245      M_A    0.0000
   1723 C         203.1643  104.1801   14.2322 C.3     246      M_A    0.0000
   1724 C         204.5349  104.0331   14.8865 C.3     246      M_A    0.0000
   1725 O         205.5315  104.7056   14.1168 O.3     246      M_A    0.0000
   1726 H         203.2027  104.8742   13.3858 H       246      M_A    0.0000
   1727 H         202.8491  103.2039   13.8463 H       246      M_A    0.0000
   1728 H         204.7808  102.9695   15.0173 H       246      M_A    0.0000
   1729 H         204.5403  104.4763   15.8901 H       246      M_A    0.0000
   1730 C         205.9664  103.9146   13.0296 C.3     247      M_A    0.0000
   1731 C         207.2669  104.4354   12.4247 C.3     247      M_A    0.0000
   1732 O         207.3381  104.1112   11.0363 O.3     247      M_A    0.0000
   1733 H         205.1706  103.8712   12.2784 H       247      M_A    0.0000
   1734 H         206.1301  102.8956   13.3984 H       247      M_A    0.0000
   1735 H         208.1294  104.0319   12.9743 H       247      M_A    0.0000
   1736 H         207.3302  105.5274   12.5108 H       247      M_A    0.0000
   1737 C         208.6542  104.2477   10.5402 C.3     248      M_A    0.0000
   1738 C         208.8839  103.4119    9.2844 C.3     248      M_A    0.0000
   1739 O         209.3592  102.1107    9.6293 O.3     248      M_A    0.0000
   1740 H         209.3635  103.9779   11.3298 H       248      M_A    0.0000
   1741 H         208.8149  105.3043   10.2972 H       248      M_A    0.0000
   1742 H         209.5820  103.9265    8.6086 H       248      M_A    0.0000
   1743 H         207.9503  103.2825    8.7228 H       248      M_A    0.0000
   1744 C         208.3123  101.2851   10.0975 C.3     249      M_A    0.0000
   1745 C         208.1328  100.0402    9.2337 C.3     249      M_A    0.0000
   1746 O         206.8780  100.0793    8.5541 O.3     249      M_A    0.0000
   1747 H         207.3882  101.8711   10.1433 H       249      M_A    0.0000
   1748 H         208.5591  100.9750   11.1194 H       249      M_A    0.0000
   1749 H         208.2258   99.1342    9.8497 H       249      M_A    0.0000
   1750 H         208.9180   99.9756    8.4702 H       249      M_A    0.0000
   1751 C         206.3339  101.3835    8.5474 C.3     250      M_A    0.0000
   1752 C         206.2187  101.9647    9.9535 C.3     250      M_A    0.0000
   1753 O         204.8540  101.9980   10.3710 O.3     250      M_A    0.0000
   1754 H         205.3596  101.3617    8.0476 H       250      M_A    0.0000
   1755 H         206.9971  102.0223    7.9530 H       250      M_A    0.0000
   1756 H         206.6722  102.9658    9.9887 H       250      M_A    0.0000
   1757 H         206.7690  101.3516   10.6781 H       250      M_A    0.0000
   1758 H         204.4375  102.8614   10.1672 H       250      M_A    0.0000
   1759 H         209.6347  219.6560   16.4028 H         0      M_A    0.0000
@<TRIPOS>BOND
     1     1     2      1
     2     1     4      1
     3     1     5      1
     4     1  1759      1
     5     2     3      1
     6     2     6      1
     7     2     7      1
     8     3     8      1
     9     8     9      1
    10     8    11      1
    11     8    12      1
    12     9    10      1
    13     9    13      1
    14     9    14      1
    15    10    15      1
    16    15    16      1
    17    15    18      1
    18    15    19      1
    19    16    17      1
    20    16    20      1
    21    16    21      1
    22    17    22      1
    23    22    23      1
    24    22    25      1
    25    22    26      1
    26    23    24      1
    27    23    27      1
    28    23    28      1
    29    24    29      1
    30    29    30      1
    31    29    32      1
    32    29    33      1
    33    30    31      1
    34    30    34      1
    35    30    35      1
    36    31    36      1
    37    36    37      1
    38    36    39      1
    39    36    40      1
    40    37    38      1
    41    37    41      1
    42    37    42      1
    43    38    43      1
    44    43    44      1
    45    43    46      1
    46    43    47      1
    47    44    45      1
    48    44    48      1
    49    44    49      1
    50    45    50      1
    51    50    51      1
    52    50    53      1
    53    50    54      1
    54    51    52      1
    55    51    55      1
    56    51    56      1
    57    52    57      1
    58    57    58      1
    59    57    60      1
    60    57    61      1
    61    58    59      1
    62    58    62      1
    63    58    63      1
    64    59    64      1
    65    64    65      1
    66    64    67      1
    67    64    68      1
    68    65    66      1
    69    65    69      1
    70    65    70      1
    71    66    71      1
    72    71    72      1
    73    71    74      1
    74    71    75      1
    75    72    73      1
    76    72    76      1
    77    72    77      1
    78    73    78      1
    79    78    79      1
    80    78    81      1
    81    78    82      1
    82    79    80      1
    83    79    83      1
    84    79    84      1
    85    80    85      1
    86    85    86      1
    87    85    88      1
    88    85    89      1
    89    86    87      1
    90    86    90      1
    91    86    91      1
    92    87    92      1
    93    92    93      1
    94    92    95      1
    95    92    96      1
    96    93    94      1
    97    93    97      1
    98    93    98      1
    99    94    99      1
   100    99   100      1
   101    99   102      1
   102    99   103      1
   103   100   101      1
   104   100   104      1
   105   100   105      1
   106   101   106      1
   107   106   107      1
   108   106   109      1
   109   106   110      1
   110   107   108      1
   111   107   111      1
   112   107   112      1
   113   108   113      1
   114   113   114      1
   115   113   116      1
   116   113   117      1
   117   114   115      1
   118   114   118      1
   119   114   119      1
   120   115   120      1
   121   120   121      1
   122   120   123      1
   123   120   124      1
   124   121   122      1
   125   121   125      1
   126   121   126      1
   127   122   127      1
   128   127   128      1
   129   127   130      1
   130   127   131      1
   131   128   129      1
   132   128   132      1
   133   128   133      1
   134   129   134      1
   135   134   135      1
   136   134   137      1
   137   134   138      1
   138   135   136      1
   139   135   139      1
   140   135   140      1
   141   136   141      1
   142   141   142      1
   143   141   144      1
   144   141   145      1
   145   142   143      1
   146   142   146      1
   147   142   147      1
   148   143   148      1
   149   148   149      1
   150   148   151      1
   151   148   152      1
   152   149   150      1
   153   149   153      1
   154   149   154      1
   155   150   155      1
   156   155   156      1
   157   155   158      1
   158   155   159      1
   159   156   157      1
   160   156   160      1
   161   156   161      1
   162   157   162      1
   163   162   163      1
   164   162   165      1
   165   162   166      1
   166   163   164      1
   167   163   167      1
   168   163   168      1
   169   164   169      1
   170   169   170      1
   171   169   172      1
   172   169   173      1
   173   170   171      1
   174   170   174      1
   175   170   175      1
   176   171   176      1
   177   176   177      1
   178   176   179      1
   179   176   180      1
   180   177   178      1
   181   177   181      1
   182   177   182      1
   183   178   183      1
   184   183   184      1
   185   183   186      1
   186   183   187      1
   187   184   185      1
   188   184   188      1
   189   184   189      1
   190   185   190      1
   191   190   191      1
   192   190   193      1
   193   190   194      1
   194   191   192      1
   195   191   195      1
   196   191   196      1
   197   192   197      1
   198   197   198      1
   199   197   200      1
   200   197   201      1
   201   198   199      1
   202   198   202      1
   203   198   203      1
   204   199   204      1
   205   204   205      1
   206   204   207      1
   207   204   208      1
   208   205   206      1
   209   205   209      1
   210   205   210      1
   211   206   211      1
   212   211   212      1
   213   211   214      1
   214   211   215      1
   215   212   213      1
   216   212   216      1
   217   212   217      1
   218   213   218      1
   219   218   219      1
   220   218   221      1
   221   218   222      1
   222   219   220      1
   223   219   223      1
   224   219   224      1
   225   220   225      1
   226   225   226      1
   227   225   228      1
   228   225   229      1
   229   226   227      1
   230   226   230      1
   231   226   231      1
   232   227   232      1
   233   232   233      1
   234   232   235      1
   235   232   236      1
   236   233   234      1
   237   233   237      1
   238   233   238      1
   239   234   239      1
   240   239   240      1
   241   239   242      1
   242   239   243      1
   243   240   241      1
   244   240   244      1
   245   240   245      1
   246   241   246      1
   247   246   247      1
   248   246   249      1
   249   246   250      1
   250   247   248      1
   251   247   251      1
   252   247   252      1
   253   248   253      1
   254   253   254      1
   255   253   256      1
   256   253   257      1
   257   254   255      1
   258   254   258      1
   259   254   259      1
   260   255   260      1
   261   260   261      1
   262   260   263      1
   263   260   264      1
   264   261   262      1
   265   261   265      1
   266   261   266      1
   267   262   267      1
   268   267   268      1
   269   267   270      1
   270   267   271      1
   271   268   269      1
   272   268   272      1
   273   268   273      1
   274   269   274      1
   275   274   275      1
   276   274   277      1
   277   274   278      1
   278   275   276      1
   279   275   279      1
   280   275   280      1
   281   276   281      1
   282   281   282      1
   283   281   284      1
   284   281   285      1
   285   282   283      1
   286   282   286      1
   287   282   287      1
   288   283   288      1
   289   288   289      1
   290   288   291      1
   291   288   292      1
   292   289   290      1
   293   289   293      1
   294   289   294      1
   295   290   295      1
   296   295   296      1
   297   295   298      1
   298   295   299      1
   299   296   297      1
   300   296   300      1
   301   296   301      1
   302   297   302      1
   303   302   303      1
   304   302   305      1
   305   302   306      1
   306   303   304      1
   307   303   307      1
   308   303   308      1
   309   304   309      1
   310   309   310      1
   311   309   312      1
   312   309   313      1
   313   310   311      1
   314   310   314      1
   315   310   315      1
   316   311   316      1
   317   316   317      1
   318   316   319      1
   319   316   320      1
   320   317   318      1
   321   317   321      1
   322   317   322      1
   323   318   323      1
   324   323   324      1
   325   323   326      1
   326   323   327      1
   327   324   325      1
   328   324   328      1
   329   324   329      1
   330   325   330      1
   331   330   331      1
   332   330   333      1
   333   330   334      1
   334   331   332      1
   335   331   335      1
   336   331   336      1
   337   332   337      1
   338   337   338      1
   339   337   340      1
   340   337   341      1
   341   338   339      1
   342   338   342      1
   343   338   343      1
   344   339   344      1
   345   344   345      1
   346   344   347      1
   347   344   348      1
   348   345   346      1
   349   345   349      1
   350   345   350      1
   351   346   351      1
   352   351   352      1
   353   351   354      1
   354   351   355      1
   355   352   353      1
   356   352   356      1
   357   352   357      1
   358   353   358      1
   359   358   359      1
   360   358   361      1
   361   358   362      1
   362   359   360      1
   363   359   363      1
   364   359   364      1
   365   360   365      1
   366   365   366      1
   367   365   368      1
   368   365   369      1
   369   366   367      1
   370   366   370      1
   371   366   371      1
   372   367   372      1
   373   372   373      1
   374   372   375      1
   375   372   376      1
   376   373   374      1
   377   373   377      1
   378   373   378      1
   379   374   379      1
   380   379   380      1
   381   379   382      1
   382   379   383      1
   383   380   381      1
   384   380   384      1
   385   380   385      1
   386   381   386      1
   387   386   387      1
   388   386   389      1
   389   386   390      1
   390   387   388      1
   391   387   391      1
   392   387   392      1
   393   388   393      1
   394   393   394      1
   395   393   396      1
   396   393   397      1
   397   394   395      1
   398   394   398      1
   399   394   399      1
   400   395   400      1
   401   400   401      1
   402   400   403      1
   403   400   404      1
   404   401   402      1
   405   401   405      1
   406   401   406      1
   407   402   407      1
   408   407   408      1
   409   407   410      1
   410   407   411      1
   411   408   409      1
   412   408   412      1
   413   408   413      1
   414   409   414      1
   415   414   415      1
   416   414   417      1
   417   414   418      1
   418   415   416      1
   419   415   419      1
   420   415   420      1
   421   416   421      1
   422   421   422      1
   423   421   424      1
   424   421   425      1
   425   422   423      1
   426   422   426      1
   427   422   427      1
   428   423   428      1
   429   428   429      1
   430   428   431      1
   431   428   432      1
   432   429   430      1
   433   429   433      1
   434   429   434      1
   435   430   435      1
   436   435   436      1
   437   435   438      1
   438   435   439      1
   439   436   437      1
   440   436   440      1
   441   436   441      1
   442   437   442      1
   443   442   443      1
   444   442   445      1
   445   442   446      1
   446   443   444      1
   447   443   447      1
   448   443   448      1
   449   444   449      1
   450   449   450      1
   451   449   452      1
   452   449   453      1
   453   450   451      1
   454   450   454      1
   455   450   455      1
   456   451   456      1
   457   456   457      1
   458   456   459      1
   459   456   460      1
   460   457   458      1
   461   457   461      1
   462   457   462      1
   463   458   463      1
   464   463   464      1
   465   463   466      1
   466   463   467      1
   467   464   465      1
   468   464   468      1
   469   464   469      1
   470   465   470      1
   471   470   471      1
   472   470   473      1
   473   470   474      1
   474   471   472      1
   475   471   475      1
   476   471   476      1
   477   472   477      1
   478   477   478      1
   479   477   480      1
   480   477   481      1
   481   478   479      1
   482   478   482      1
   483   478   483      1
   484   479   484      1
   485   484   485      1
   486   484   487      1
   487   484   488      1
   488   485   486      1
   489   485   489      1
   490   485   490      1
   491   486   491      1
   492   491   492      1
   493   491   494      1
   494   491   495      1
   495   492   493      1
   496   492   496      1
   497   492   497      1
   498   493   498      1
   499   498   499      1
   500   498   501      1
   501   498   502      1
   502   499   500      1
   503   499   503      1
   504   499   504      1
   505   500   505      1
   506   505   506      1
   507   505   508      1
   508   505   509      1
   509   506   507      1
   510   506   510      1
   511   506   511      1
   512   507   512      1
   513   512   513      1
   514   512   515      1
   515   512   516      1
   516   513   514      1
   517   513   517      1
   518   513   518      1
   519   514   519      1
   520   519   520      1
   521   519   522      1
   522   519   523      1
   523   520   521      1
   524   520   524      1
   525   520   525      1
   526   521   526      1
   527   526   527      1
   528   526   529      1
   529   526   530      1
   530   527   528      1
   531   527   531      1
   532   527   532      1
   533   528   533      1
   534   533   534      1
   535   533   536      1
   536   533   537      1
   537   534   535      1
   538   534   538      1
   539   534   539      1
   540   535   540      1
   541   540   541      1
   542   540   543      1
   543   540   544      1
   544   541   542      1
   545   541   545      1
   546   541   546      1
   547   542   547      1
   548   547   548      1
   549   547   550      1
   550   547   551      1
   551   548   549      1
   552   548   552      1
   553   548   553      1
   554   549   554      1
   555   554   555      1
   556   554   557      1
   557   554   558      1
   558   555   556      1
   559   555   559      1
   560   555   560      1
   561   556   561      1
   562   561   562      1
   563   561   564      1
   564   561   565      1
   565   562   563      1
   566   562   566      1
   567   562   567      1
   568   563   568      1
   569   568   569      1
   570   568   571      1
   571   568   572      1
   572   569   570      1
   573   569   573      1
   574   569   574      1
   575   570   575      1
   576   575   576      1
   577   575   578      1
   578   575   579      1
   579   576   577      1
   580   576   580      1
   581   576   581      1
   582   577   582      1
   583   582   583      1
   584   582   585      1
   585   582   586      1
   586   583   584      1
   587   583   587      1
   588   583   588      1
   589   584   589      1
   590   589   590      1
   591   589   592      1
   592   589   593      1
   593   590   591      1
   594   590   594      1
   595   590   595      1
   596   591   596      1
   597   596   597      1
   598   596   599      1
   599   596   600      1
   600   597   598      1
   601   597   601      1
   602   597   602      1
   603   598   603      1
   604   603   604      1
   605   603   606      1
   606   603   607      1
   607   604   605      1
   608   604   608      1
   609   604   609      1
   610   605   610      1
   611   610   611      1
   612   610   613      1
   613   610   614      1
   614   611   612      1
   615   611   615      1
   616   611   616      1
   617   612   617      1
   618   617   618      1
   619   617   620      1
   620   617   621      1
   621   618   619      1
   622   618   622      1
   623   618   623      1
   624   619   624      1
   625   624   625      1
   626   624   627      1
   627   624   628      1
   628   625   626      1
   629   625   629      1
   630   625   630      1
   631   626   631      1
   632   631   632      1
   633   631   634      1
   634   631   635      1
   635   632   633      1
   636   632   636      1
   637   632   637      1
   638   633   638      1
   639   638   639      1
   640   638   641      1
   641   638   642      1
   642   639   640      1
   643   639   643      1
   644   639   644      1
   645   640   645      1
   646   645   646      1
   647   645   648      1
   648   645   649      1
   649   646   647      1
   650   646   650      1
   651   646   651      1
   652   647   652      1
   653   652   653      1
   654   652   655      1
   655   652   656      1
   656   653   654      1
   657   653   657      1
   658   653   658      1
   659   654   659      1
   660   659   660      1
   661   659   662      1
   662   659   663      1
   663   660   661      1
   664   660   664      1
   665   660   665      1
   666   661   666      1
   667   666   667      1
   668   666   669      1
   669   666   670      1
   670   667   668      1
   671   667   671      1
   672   667   672      1
   673   668   673      1
   674   673   674      1
   675   673   676      1
   676   673   677      1
   677   674   675      1
   678   674   678      1
   679   674   679      1
   680   675   680      1
   681   680   681      1
   682   680   683      1
   683   680   684      1
   684   681   682      1
   685   681   685      1
   686   681   686      1
   687   682   687      1
   688   687   688      1
   689   687   690      1
   690   687   691      1
   691   688   689      1
   692   688   692      1
   693   688   693      1
   694   689   694      1
   695   694   695      1
   696   694   697      1
   697   694   698      1
   698   695   696      1
   699   695   699      1
   700   695   700      1
   701   696   701      1
   702   701   702      1
   703   701   704      1
   704   701   705      1
   705   702   703      1
   706   702   706      1
   707   702   707      1
   708   703   708      1
   709   708   709      1
   710   708   711      1
   711   708   712      1
   712   709   710      1
   713   709   713      1
   714   709   714      1
   715   710   715      1
   716   715   716      1
   717   715   718      1
   718   715   719      1
   719   716   717      1
   720   716   720      1
   721   716   721      1
   722   717   722      1
   723   722   723      1
   724   722   725      1
   725   722   726      1
   726   723   724      1
   727   723   727      1
   728   723   728      1
   729   724   729      1
   730   729   730      1
   731   729   732      1
   732   729   733      1
   733   730   731      1
   734   730   734      1
   735   730   735      1
   736   731   736      1
   737   736   737      1
   738   736   739      1
   739   736   740      1
   740   737   738      1
   741   737   741      1
   742   737   742      1
   743   738   743      1
   744   743   744      1
   745   743   746      1
   746   743   747      1
   747   744   745      1
   748   744   748      1
   749   744   749      1
   750   745   750      1
   751   750   751      1
   752   750   753      1
   753   750   754      1
   754   751   752      1
   755   751   755      1
   756   751   756      1
   757   752   757      1
   758   757   758      1
   759   757   760      1
   760   757   761      1
   761   758   759      1
   762   758   762      1
   763   758   763      1
   764   759   764      1
   765   764   765      1
   766   764   767      1
   767   764   768      1
   768   765   766      1
   769   765   769      1
   770   765   770      1
   771   766   771      1
   772   771   772      1
   773   771   774      1
   774   771   775      1
   775   772   773      1
   776   772   776      1
   777   772   777      1
   778   773   778      1
   779   778   779      1
   780   778   781      1
   781   778   782      1
   782   779   780      1
   783   779   783      1
   784   779   784      1
   785   780   785      1
   786   785   786      1
   787   785   788      1
   788   785   789      1
   789   786   787      1
   790   786   790      1
   791   786   791      1
   792   787   792      1
   793   792   793      1
   794   792   795      1
   795   792   796      1
   796   793   794      1
   797   793   797      1
   798   793   798      1
   799   794   799      1
   800   799   800      1
   801   799   802      1
   802   799   803      1
   803   800   801      1
   804   800   804      1
   805   800   805      1
   806   801   806      1
   807   806   807      1
   808   806   809      1
   809   806   810      1
   810   807   808      1
   811   807   811      1
   812   807   812      1
   813   808   813      1
   814   813   814      1
   815   813   816      1
   816   813   817      1
   817   814   815      1
   818   814   818      1
   819   814   819      1
   820   815   820      1
   821   820   821      1
   822   820   823      1
   823   820   824      1
   824   821   822      1
   825   821   825      1
   826   821   826      1
   827   822   827      1
   828   827   828      1
   829   827   830      1
   830   827   831      1
   831   828   829      1
   832   828   832      1
   833   828   833      1
   834   829   834      1
   835   834   835      1
   836   834   837      1
   837   834   838      1
   838   835   836      1
   839   835   839      1
   840   835   840      1
   841   836   841      1
   842   841   842      1
   843   841   844      1
   844   841   845      1
   845   842   843      1
   846   842   846      1
   847   842   847      1
   848   843   848      1
   849   848   849      1
   850   848   851      1
   851   848   852      1
   852   849   850      1
   853   849   853      1
   854   849   854      1
   855   850   855      1
   856   855   856      1
   857   855   858      1
   858   855   859      1
   859   856   857      1
   860   856   860      1
   861   856   861      1
   862   857   862      1
   863   862   863      1
   864   862   865      1
   865   862   866      1
   866   863   864      1
   867   863   867      1
   868   863   868      1
   869   864   869      1
   870   869   870      1
   871   869   872      1
   872   869   873      1
   873   870   871      1
   874   870   874      1
   875   870   875      1
   876   871   876      1
   877   876   877      1
   878   876   879      1
   879   876   880      1
   880   877   878      1
   881   877   881      1
   882   877   882      1
   883   878   883      1
   884   883   884      1
   885   883   886      1
   886   883   887      1
   887   884   885      1
   888   884   888      1
   889   884   889      1
   890   885   890      1
   891   890   891      1
   892   890   893      1
   893   890   894      1
   894   891   892      1
   895   891   895      1
   896   891   896      1
   897   892   897      1
   898   897   898      1
   899   897   900      1
   900   897   901      1
   901   898   899      1
   902   898   902      1
   903   898   903      1
   904   899   904      1
   905   904   905      1
   906   904   907      1
   907   904   908      1
   908   905   906      1
   909   905   909      1
   910   905   910      1
   911   906   911      1
   912   911   912      1
   913   911   914      1
   914   911   915      1
   915   912   913      1
   916   912   916      1
   917   912   917      1
   918   913   918      1
   919   918   919      1
   920   918   921      1
   921   918   922      1
   922   919   920      1
   923   919   923      1
   924   919   924      1
   925   920   925      1
   926   925   926      1
   927   925   928      1
   928   925   929      1
   929   926   927      1
   930   926   930      1
   931   926   931      1
   932   927   932      1
   933   932   933      1
   934   932   935      1
   935   932   936      1
   936   933   934      1
   937   933   937      1
   938   933   938      1
   939   934   939      1
   940   939   940      1
   941   939   942      1
   942   939   943      1
   943   940   941      1
   944   940   944      1
   945   940   945      1
   946   941   946      1
   947   946   947      1
   948   946   949      1
   949   946   950      1
   950   947   948      1
   951   947   951      1
   952   947   952      1
   953   948   953      1
   954   953   954      1
   955   953   956      1
   956   953   957      1
   957   954   955      1
   958   954   958      1
   959   954   959      1
   960   955   960      1
   961   960   961      1
   962   960   963      1
   963   960   964      1
   964   961   962      1
   965   961   965      1
   966   961   966      1
   967   962   967      1
   968   967   968      1
   969   967   970      1
   970   967   971      1
   971   968   969      1
   972   968   972      1
   973   968   973      1
   974   969   974      1
   975   974   975      1
   976   974   977      1
   977   974   978      1
   978   975   976      1
   979   975   979      1
   980   975   980      1
   981   976   981      1
   982   981   982      1
   983   981   984      1
   984   981   985      1
   985   982   983      1
   986   982   986      1
   987   982   987      1
   988   983   988      1
   989   988   989      1
   990   988   991      1
   991   988   992      1
   992   989   990      1
   993   989   993      1
   994   989   994      1
   995   990   995      1
   996   995   996      1
   997   995   998      1
   998   995   999      1
   999   996   997      1
  1000   996  1000      1
  1001   996  1001      1
  1002   997  1002      1
  1003  1002  1003      1
  1004  1002  1005      1
  1005  1002  1006      1
  1006  1003  1004      1
  1007  1003  1007      1
  1008  1003  1008      1
  1009  1004  1009      1
  1010  1009  1010      1
  1011  1009  1012      1
  1012  1009  1013      1
  1013  1010  1011      1
  1014  1010  1014      1
  1015  1010  1015      1
  1016  1011  1016      1
  1017  1016  1017      1
  1018  1016  1019      1
  1019  1016  1020      1
  1020  1017  1018      1
  1021  1017  1021      1
  1022  1017  1022      1
  1023  1018  1023      1
  1024  1023  1024      1
  1025  1023  1026      1
  1026  1023  1027      1
  1027  1024  1025      1
  1028  1024  1028      1
  1029  1024  1029      1
  1030  1025  1030      1
  1031  1030  1031      1
  1032  1030  1033      1
  1033  1030  1034      1
  1034  1031  1032      1
  1035  1031  1035      1
  1036  1031  1036      1
  1037  1032  1037      1
  1038  1037  1038      1
  1039  1037  1040      1
  1040  1037  1041      1
  1041  1038  1039      1
  1042  1038  1042      1
  1043  1038  1043      1
  1044  1039  1044      1
  1045  1044  1045      1
  1046  1044  1047      1
  1047  1044  1048      1
  1048  1045  1046      1
  1049  1045  1049      1
  1050  1045  1050      1
  1051  1046  1051      1
  1052  1051  1052      1
  1053  1051  1054      1
  1054  1051  1055      1
  1055  1052  1053      1
  1056  1052  1056      1
  1057  1052  1057      1
  1058  1053  1058      1
  1059  1058  1059      1
  1060  1058  1061      1
  1061  1058  1062      1
  1062  1059  1060      1
  1063  1059  1063      1
  1064  1059  1064      1
  1065  1060  1065      1
  1066  1065  1066      1
  1067  1065  1068      1
  1068  1065  1069      1
  1069  1066  1067      1
  1070  1066  1070      1
  1071  1066  1071      1
  1072  1067  1072      1
  1073  1072  1073      1
  1074  1072  1075      1
  1075  1072  1076      1
  1076  1073  1074      1
  1077  1073  1077      1
  1078  1073  1078      1
  1079  1074  1079      1
  1080  1079  1080      1
  1081  1079  1082      1
  1082  1079  1083      1
  1083  1080  1081      1
  1084  1080  1084      1
  1085  1080  1085      1
  1086  1081  1086      1
  1087  1086  1087      1
  1088  1086  1089      1
  1089  1086  1090      1
  1090  1087  1088      1
  1091  1087  1091      1
  1092  1087  1092      1
  1093  1088  1093      1
  1094  1093  1094      1
  1095  1093  1096      1
  1096  1093  1097      1
  1097  1094  1095      1
  1098  1094  1098      1
  1099  1094  1099      1
  1100  1095  1100      1
  1101  1100  1101      1
  1102  1100  1103      1
  1103  1100  1104      1
  1104  1101  1102      1
  1105  1101  1105      1
  1106  1101  1106      1
  1107  1102  1107      1
  1108  1107  1108      1
  1109  1107  1110      1
  1110  1107  1111      1
  1111  1108  1109      1
  1112  1108  1112      1
  1113  1108  1113      1
  1114  1109  1114      1
  1115  1114  1115      1
  1116  1114  1117      1
  1117  1114  1118      1
  1118  1115  1116      1
  1119  1115  1119      1
  1120  1115  1120      1
  1121  1116  1121      1
  1122  1121  1122      1
  1123  1121  1124      1
  1124  1121  1125      1
  1125  1122  1123      1
  1126  1122  1126      1
  1127  1122  1127      1
  1128  1123  1128      1
  1129  1128  1129      1
  1130  1128  1131      1
  1131  1128  1132      1
  1132  1129  1130      1
  1133  1129  1133      1
  1134  1129  1134      1
  1135  1130  1135      1
  1136  1135  1136      1
  1137  1135  1138      1
  1138  1135  1139      1
  1139  1136  1137      1
  1140  1136  1140      1
  1141  1136  1141      1
  1142  1137  1142      1
  1143  1142  1143      1
  1144  1142  1145      1
  1145  1142  1146      1
  1146  1143  1144      1
  1147  1143  1147      1
  1148  1143  1148      1
  1149  1144  1149      1
  1150  1149  1150      1
  1151  1149  1152      1
  1152  1149  1153      1
  1153  1150  1151      1
  1154  1150  1154      1
  1155  1150  1155      1
  1156  1151  1156      1
  1157  1156  1157      1
  1158  1156  1159      1
  1159  1156  1160      1
  1160  1157  1158      1
  1161  1157  1161      1
  1162  1157  1162      1
  1163  1158  1163      1
  1164  1163  1164      1
  1165  1163  1166      1
  1166  1163  1167      1
  1167  1164  1165      1
  1168  1164  1168      1
  1169  1164  1169      1
  1170  1165  1170      1
  1171  1170  1171      1
  1172  1170  1173      1
  1173  1170  1174      1
  1174  1171  1172      1
  1175  1171  1175      1
  1176  1171  1176      1
  1177  1172  1177      1
  1178  1177  1178      1
  1179  1177  1180      1
  1180  1177  1181      1
  1181  1178  1179      1
  1182  1178  1182      1
  1183  1178  1183      1
  1184  1179  1184      1
  1185  1184  1185      1
  1186  1184  1187      1
  1187  1184  1188      1
  1188  1185  1186      1
  1189  1185  1189      1
  1190  1185  1190      1
  1191  1186  1191      1
  1192  1191  1192      1
  1193  1191  1194      1
  1194  1191  1195      1
  1195  1192  1193      1
  1196  1192  1196      1
  1197  1192  1197      1
  1198  1193  1198      1
  1199  1198  1199      1
  1200  1198  1201      1
  1201  1198  1202      1
  1202  1199  1200      1
  1203  1199  1203      1
  1204  1199  1204      1
  1205  1200  1205      1
  1206  1205  1206      1
  1207  1205  1208      1
  1208  1205  1209      1
  1209  1206  1207      1
  1210  1206  1210      1
  1211  1206  1211      1
  1212  1207  1212      1
  1213  1212  1213      1
  1214  1212  1215      1
  1215  1212  1216      1
  1216  1213  1214      1
  1217  1213  1217      1
  1218  1213  1218      1
  1219  1214  1219      1
  1220  1219  1220      1
  1221  1219  1222      1
  1222  1219  1223      1
  1223  1220  1221      1
  1224  1220  1224      1
  1225  1220  1225      1
  1226  1221  1226      1
  1227  1226  1227      1
  1228  1226  1229      1
  1229  1226  1230      1
  1230  1227  1228      1
  1231  1227  1231      1
  1232  1227  1232      1
  1233  1228  1233      1
  1234  1233  1234      1
  1235  1233  1236      1
  1236  1233  1237      1
  1237  1234  1235      1
  1238  1234  1238      1
  1239  1234  1239      1
  1240  1235  1240      1
  1241  1240  1241      1
  1242  1240  1243      1
  1243  1240  1244      1
  1244  1241  1242      1
  1245  1241  1245      1
  1246  1241  1246      1
  1247  1242  1247      1
  1248  1247  1248      1
  1249  1247  1250      1
  1250  1247  1251      1
  1251  1248  1249      1
  1252  1248  1252      1
  1253  1248  1253      1
  1254  1249  1254      1
  1255  1254  1255      1
  1256  1254  1257      1
  1257  1254  1258      1
  1258  1255  1256      1
  1259  1255  1259      1
  1260  1255  1260      1
  1261  1256  1261      1
  1262  1261  1262      1
  1263  1261  1264      1
  1264  1261  1265      1
  1265  1262  1263      1
  1266  1262  1266      1
  1267  1262  1267      1
  1268  1263  1268      1
  1269  1268  1269      1
  1270  1268  1271      1
  1271  1268  1272      1
  1272  1269  1270      1
  1273  1269  1273      1
  1274  1269  1274      1
  1275  1270  1275      1
  1276  1275  1276      1
  1277  1275  1278      1
  1278  1275  1279      1
  1279  1276  1277      1
  1280  1276  1280      1
  1281  1276  1281      1
  1282  1277  1282      1
  1283  1282  1283      1
  1284  1282  1285      1
  1285  1282  1286      1
  1286  1283  1284      1
  1287  1283  1287      1
  1288  1283  1288      1
  1289  1284  1289      1
  1290  1289  1290      1
  1291  1289  1292      1
  1292  1289  1293      1
  1293  1290  1291      1
  1294  1290  1294      1
  1295  1290  1295      1
  1296  1291  1296      1
  1297  1296  1297      1
  1298  1296  1299      1
  1299  1296  1300      1
  1300  1297  1298      1
  1301  1297  1301      1
  1302  1297  1302      1
  1303  1298  1303      1
  1304  1303  1304      1
  1305  1303  1306      1
  1306  1303  1307      1
  1307  1304  1305      1
  1308  1304  1308      1
  1309  1304  1309      1
  1310  1305  1310      1
  1311  1310  1311      1
  1312  1310  1313      1
  1313  1310  1314      1
  1314  1311  1312      1
  1315  1311  1315      1
  1316  1311  1316      1
  1317  1312  1317      1
  1318  1317  1318      1
  1319  1317  1320      1
  1320  1317  1321      1
  1321  1318  1319      1
  1322  1318  1322      1
  1323  1318  1323      1
  1324  1319  1324      1
  1325  1324  1325      1
  1326  1324  1327      1
  1327  1324  1328      1
  1328  1325  1326      1
  1329  1325  1329      1
  1330  1325  1330      1
  1331  1326  1331      1
  1332  1331  1332      1
  1333  1331  1334      1
  1334  1331  1335      1
  1335  1332  1333      1
  1336  1332  1336      1
  1337  1332  1337      1
  1338  1333  1338      1
  1339  1338  1339      1
  1340  1338  1341      1
  1341  1338  1342      1
  1342  1339  1340      1
  1343  1339  1343      1
  1344  1339  1344      1
  1345  1340  1345      1
  1346  1345  1346      1
  1347  1345  1348      1
  1348  1345  1349      1
  1349  1346  1347      1
  1350  1346  1350      1
  1351  1346  1351      1
  1352  1347  1352      1
  1353  1352  1353      1
  1354  1352  1355      1
  1355  1352  1356      1
  1356  1353  1354      1
  1357  1353  1357      1
  1358  1353  1358      1
  1359  1354  1359      1
  1360  1359  1360      1
  1361  1359  1362      1
  1362  1359  1363      1
  1363  1360  1361      1
  1364  1360  1364      1
  1365  1360  1365      1
  1366  1361  1366      1
  1367  1366  1367      1
  1368  1366  1369      1
  1369  1366  1370      1
  1370  1367  1368      1
  1371  1367  1371      1
  1372  1367  1372      1
  1373  1368  1373      1
  1374  1373  1374      1
  1375  1373  1376      1
  1376  1373  1377      1
  1377  1374  1375      1
  1378  1374  1378      1
  1379  1374  1379      1
  1380  1375  1380      1
  1381  1380  1381      1
  1382  1380  1383      1
  1383  1380  1384      1
  1384  1381  1382      1
  1385  1381  1385      1
  1386  1381  1386      1
  1387  1382  1387      1
  1388  1387  1388      1
  1389  1387  1390      1
  1390  1387  1391      1
  1391  1388  1389      1
  1392  1388  1392      1
  1393  1388  1393      1
  1394  1389  1394      1
  1395  1394  1395      1
  1396  1394  1397      1
  1397  1394  1398      1
  1398  1395  1396      1
  1399  1395  1399      1
  1400  1395  1400      1
  1401  1396  1401      1
  1402  1401  1402      1
  1403  1401  1404      1
  1404  1401  1405      1
  1405  1402  1403      1
  1406  1402  1406      1
  1407  1402  1407      1
  1408  1403  1408      1
  1409  1408  1409      1
  1410  1408  1411      1
  1411  1408  1412      1
  1412  1409  1410      1
  1413  1409  1413      1
  1414  1409  1414      1
  1415  1410  1415      1
  1416  1415  1416      1
  1417  1415  1418      1
  1418  1415  1419      1
  1419  1416  1417      1
  1420  1416  1420      1
  1421  1416  1421      1
  1422  1417  1422      1
  1423  1422  1423      1
  1424  1422  1425      1
  1425  1422  1426      1
  1426  1423  1424      1
  1427  1423  1427      1
  1428  1423  1428      1
  1429  1424  1429      1
  1430  1429  1430      1
  1431  1429  1432      1
  1432  1429  1433      1
  1433  1430  1431      1
  1434  1430  1434      1
  1435  1430  1435      1
  1436  1431  1436      1
  1437  1436  1437      1
  1438  1436  1439      1
  1439  1436  1440      1
  1440  1437  1438      1
  1441  1437  1441      1
  1442  1437  1442      1
  1443  1438  1443      1
  1444  1443  1444      1
  1445  1443  1446      1
  1446  1443  1447      1
  1447  1444  1445      1
  1448  1444  1448      1
  1449  1444  1449      1
  1450  1445  1450      1
  1451  1450  1451      1
  1452  1450  1453      1
  1453  1450  1454      1
  1454  1451  1452      1
  1455  1451  1455      1
  1456  1451  1456      1
  1457  1452  1457      1
  1458  1457  1458      1
  1459  1457  1460      1
  1460  1457  1461      1
  1461  1458  1459      1
  1462  1458  1462      1
  1463  1458  1463      1
  1464  1459  1464      1
  1465  1464  1465      1
  1466  1464  1467      1
  1467  1464  1468      1
  1468  1465  1466      1
  1469  1465  1469      1
  1470  1465  1470      1
  1471  1466  1471      1
  1472  1471  1472      1
  1473  1471  1474      1
  1474  1471  1475      1
  1475  1472  1473      1
  1476  1472  1476      1
  1477  1472  1477      1
  1478  1473  1478      1
  1479  1478  1479      1
  1480  1478  1481      1
  1481  1478  1482      1
  1482  1479  1480      1
  1483  1479  1483      1
  1484  1479  1484      1
  1485  1480  1485      1
  1486  1485  1486      1
  1487  1485  1488      1
  1488  1485  1489      1
  1489  1486  1487      1
  1490  1486  1490      1
  1491  1486  1491      1
  1492  1487  1492      1
  1493  1492  1493      1
  1494  1492  1495      1
  1495  1492  1496      1
  1496  1493  1494      1
  1497  1493  1497      1
  1498  1493  1498      1
  1499  1494  1499      1
  1500  1499  1500      1
  1501  1499  1502      1
  1502  1499  1503      1
  1503  1500  1501      1
  1504  1500  1504      1
  1505  1500  1505      1
  1506  1501  1506      1
  1507  1506  1507      1
  1508  1506  1509      1
  1509  1506  1510      1
  1510  1507  1508      1
  1511  1507  1511      1
  1512  1507  1512      1
  1513  1508  1513      1
  1514  1513  1514      1
  1515  1513  1516      1
  1516  1513  1517      1
  1517  1514  1515      1
  1518  1514  1518      1
  1519  1514  1519      1
  1520  1515  1520      1
  1521  1520  1521      1
  1522  1520  1523      1
  1523  1520  1524      1
  1524  1521  1522      1
  1525  1521  1525      1
  1526  1521  1526      1
  1527  1522  1527      1
  1528  1527  1528      1
  1529  1527  1530      1
  1530  1527  1531      1
  1531  1528  1529      1
  1532  1528  1532      1
  1533  1528  1533      1
  1534  1529  1534      1
  1535  1534  1535      1
  1536  1534  1537      1
  1537  1534  1538      1
  1538  1535  1536      1
  1539  1535  1539      1
  1540  1535  1540      1
  1541  1536  1541      1
  1542  1541  1542      1
  1543  1541  1544      1
  1544  1541  1545      1
  1545  1542  1543      1
  1546  1542  1546      1
  1547  1542  1547      1
  1548  1543  1548      1
  1549  1548  1549      1
  1550  1548  1551      1
  1551  1548  1552      1
  1552  1549  1550      1
  1553  1549  1553      1
  1554  1549  1554      1
  1555  1550  1555      1
  1556  1555  1556      1
  1557  1555  1558      1
  1558  1555  1559      1
  1559  1556  1557      1
  1560  1556  1560      1
  1561  1556  1561      1
  1562  1557  1562      1
  1563  1562  1563      1
  1564  1562  1565      1
  1565  1562  1566      1
  1566  1563  1564      1
  1567  1563  1567      1
  1568  1563  1568      1
  1569  1564  1569      1
  1570  1569  1570      1
  1571  1569  1572      1
  1572  1569  1573      1
  1573  1570  1571      1
  1574  1570  1574      1
  1575  1570  1575      1
  1576  1571  1576      1
  1577  1576  1577      1
  1578  1576  1579      1
  1579  1576  1580      1
  1580  1577  1578      1
  1581  1577  1581      1
  1582  1577  1582      1
  1583  1578  1583      1
  1584  1583  1584      1
  1585  1583  1586      1
  1586  1583  1587      1
  1587  1584  1585      1
  1588  1584  1588      1
  1589  1584  1589      1
  1590  1585  1590      1
  1591  1590  1591      1
  1592  1590  1593      1
  1593  1590  1594      1
  1594  1591  1592      1
  1595  1591  1595      1
  1596  1591  1596      1
  1597  1592  1597      1
  1598  1597  1598      1
  1599  1597  1600      1
  1600  1597  1601      1
  1601  1598  1599      1
  1602  1598  1602      1
  1603  1598  1603      1
  1604  1599  1604      1
  1605  1604  1605      1
  1606  1604  1607      1
  1607  1604  1608      1
  1608  1605  1606      1
  1609  1605  1609      1
  1610  1605  1610      1
  1611  1606  1611      1
  1612  1611  1612      1
  1613  1611  1614      1
  1614  1611  1615      1
  1615  1612  1613      1
  1616  1612  1616      1
  1617  1612  1617      1
  1618  1613  1618      1
  1619  1618  1619      1
  1620  1618  1621      1
  1621  1618  1622      1
  1622  1619  1620      1
  1623  1619  1623      1
  1624  1619  1624      1
  1625  1620  1625      1
  1626  1625  1626      1
  1627  1625  1628      1
  1628  1625  1629      1
  1629  1626  1627      1
  1630  1626  1630      1
  1631  1626  1631      1
  1632  1627  1632      1
  1633  1632  1633      1
  1634  1632  1635      1
  1635  1632  1636      1
  1636  1633  1634      1
  1637  1633  1637      1
  1638  1633  1638      1
  1639  1634  1639      1
  1640  1639  1640      1
  1641  1639  1642      1
  1642  1639  1643      1
  1643  1640  1641      1
  1644  1640  1644      1
  1645  1640  1645      1
  1646  1641  1646      1
  1647  1646  1647      1
  1648  1646  1649      1
  1649  1646  1650      1
  1650  1647  1648      1
  1651  1647  1651      1
  1652  1647  1652      1
  1653  1648  1653      1
  1654  1653  1654      1
  1655  1653  1656      1
  1656  1653  1657      1
  1657  1654  1655      1
  1658  1654  1658      1
  1659  1654  1659      1
  1660  1655  1660      1
  1661  1660  1661      1
  1662  1660  1663      1
  1663  1660  1664      1
  1664  1661  1662      1
  1665  1661  1665      1
  1666  1661  1666      1
  1667  1662  1667      1
  1668  1667  1668      1
  1669  1667  1670      1
  1670  1667  1671      1
  1671  1668  1669      1
  1672  1668  1672      1
  1673  1668  1673      1
  1674  1669  1674      1
  1675  1674  1675      1
  1676  1674  1677      1
  1677  1674  1678      1
  1678  1675  1676      1
  1679  1675  1679      1
  1680  1675  1680      1
  1681  1676  1681      1
  1682  1681  1682      1
  1683  1681  1684      1
  1684  1681  1685      1
  1685  1682  1683      1
  1686  1682  1686      1
  1687  1682  1687      1
  1688  1683  1688      1
  1689  1688  1689      1
  1690  1688  1691      1
  1691  1688  1692      1
  1692  1689  1690      1
  1693  1689  1693      1
  1694  1689  1694      1
  1695  1690  1695      1
  1696  1695  1696      1
  1697  1695  1698      1
  1698  1695  1699      1
  1699  1696  1697      1
  1700  1696  1700      1
  1701  1696  1701      1
  1702  1697  1702      1
  1703  1702  1703      1
  1704  1702  1705      1
  1705  1702  1706      1
  1706  1703  1704      1
  1707  1703  1707      1
  1708  1703  1708      1
  1709  1704  1709      1
  1710  1709  1710      1
  1711  1709  1712      1
  1712  1709  1713      1
  1713  1710  1711      1
  1714  1710  1714      1
  1715  1710  1715      1
  1716  1711  1716      1
  1717  1716  1717      1
  1718  1716  1719      1
  1719  1716  1720      1
  1720  1717  1718      1
  1721  1717  1721      1
  1722  1717  1722      1
  1723  1718  1723      1
  1724  1723  1724      1
  1725  1723  1726      1
  1726  1723  1727      1
  1727  1724  1725      1
  1728  1724  1728      1
  1729  1724  1729      1
  1730  1725  1730      1
  1731  1730  1731      1
  1732  1730  1733      1
  1733  1730  1734      1
  1734  1731  1732      1
  1735  1731  1735      1
  1736  1731  1736      1
  1737  1732  1737      1
  1738  1737  1738      1
  1739  1737  1740      1
  1740  1737  1741      1
  1741  1738  1739      1
  1742  1738  1742      1
  1743  1738  1743      1
  1744  1739  1744      1
  1745  1744  1745      1
  1746  1744  1747      1
  1747  1744  1748      1
  1748  1745  1746      1
  1749  1745  1749      1
  1750  1745  1750      1
  1751  1746  1751      1
  1752  1751  1752      1
  1753  1751  1754      1
  1754  1751  1755      1
  1755  1752  1753      1
  1756  1752  1756      1
  1757  1752  1757      1
  1758  1753  1758      1
