###
### Created by PolyChef-cpp17 on Mon May 12 10:39:11 2025
###

@<TRIPOS>MOLECULE
NO_INFO
604 603 1 0 0
SMALL
USER_CHARGES


@<TRIPOS>ATOM
      1 C         187.6674   32.1943   62.9377 C.3       0      M_A    0.0000
      2 C         189.1904   32.1171   62.9812 C.3       0      M_A    0.0000
      3 O         189.7646   33.3211   62.4746 O.3       0      M_A    0.0000
      4 H         187.2895   32.7508   63.8028 H         0      M_A    0.0000
      5 H         187.3518   32.7604   62.0531 H         0      M_A    0.0000
      6 H         189.5627   31.8816   63.9887 H         0      M_A    0.0000
      7 H         189.5425   31.3092   62.3272 H         0      M_A    0.0000
      8 C         190.4560   34.0354   63.4756 C.3       1      M_A    0.0000
      9 C         191.3442   35.1253   62.8837 C.3       1      M_A    0.0000
     10 O         191.9268   35.9114   63.9222 O.3       1      M_A    0.0000
     11 H         191.0549   33.3393   64.0739 H         1      M_A    0.0000
     12 H         189.7332   34.4839   64.1678 H         1      M_A    0.0000
     13 H         192.1080   34.7133   62.2084 H         1      M_A    0.0000
     14 H         190.7391   35.8133   62.2795 H         1      M_A    0.0000
     15 C         193.1233   35.3408   64.4049 C.3       2      M_A    0.0000
     16 C         194.3346   36.2138   64.0919 C.3       2      M_A    0.0000
     17 O         194.7153   36.9680   65.2417 O.3       2      M_A    0.0000
     18 H         193.2522   34.3418   63.9732 H         2      M_A    0.0000
     19 H         193.0449   35.1936   65.4888 H         2      M_A    0.0000
     20 H         195.1748   35.6261   63.6945 H         2      M_A    0.0000
     21 H         194.0773   36.9453   63.3153 H         2      M_A    0.0000
     22 C         195.6807   37.9487   64.9309 C.3       3      M_A    0.0000
     23 C         195.1194   39.0240   64.0059 C.3       3      M_A    0.0000
     24 O         195.7146   40.2885   64.2936 O.3       3      M_A    0.0000
     25 H         196.5536   37.4700   64.4727 H         3      M_A    0.0000
     26 H         196.0415   38.4108   65.8577 H         3      M_A    0.0000
     27 H         195.2297   38.7545   62.9456 H         3      M_A    0.0000
     28 H         194.0427   39.1435   64.1819 H         3      M_A    0.0000
     29 C         196.9287   40.4683   63.5981 C.3       4      M_A    0.0000
     30 C         197.4255   41.9079   63.6870 C.3       4      M_A    0.0000
     31 O         198.5210   42.0014   64.5964 O.3       4      M_A    0.0000
     32 H         196.7968   40.1750   62.5504 H         4      M_A    0.0000
     33 H         197.6870   39.7904   64.0083 H         4      M_A    0.0000
     34 H         197.6809   42.3178   62.6991 H         4      M_A    0.0000
     35 H         196.6341   42.5520   64.0912 H         4      M_A    0.0000
     36 C         198.8821   43.3418   64.8482 C.3       5      M_A    0.0000
     37 C         197.8293   44.0657   65.6817 C.3       5      M_A    0.0000
     38 O         198.4144   44.5989   66.8689 O.3       5      M_A    0.0000
     39 H         199.0391   43.8629   63.8970 H         5      M_A    0.0000
     40 H         199.8467   43.3671   65.3693 H         5      M_A    0.0000
     41 H         197.3063   44.8406   65.1027 H         5      M_A    0.0000
     42 H         197.0595   43.3558   66.0100 H         5      M_A    0.0000
     43 C         198.8446   43.5808   67.7457 C.3       6      M_A    0.0000
     44 C         200.2657   43.8245   68.2439 C.3       6      M_A    0.0000
     45 O         200.2943   43.8590   69.6700 O.3       6      M_A    0.0000
     46 H         198.7796   42.6109   67.2396 H         6      M_A    0.0000
     47 H         198.1592   43.5224   68.5997 H         6      M_A    0.0000
     48 H         200.9760   43.0884   67.8405 H         6      M_A    0.0000
     49 H         200.6170   44.8075   67.9052 H         6      M_A    0.0000
     50 C         201.3366   44.6767   70.1552 C.3       7      M_A    0.0000
     51 C         202.6223   44.4910   69.3554 C.3       7      M_A    0.0000
     52 O         203.5071   45.5890   69.5731 O.3       7      M_A    0.0000
     53 H         201.5116   44.4560   71.2142 H         7      M_A    0.0000
     54 H         201.0245   45.7272   70.1132 H         7      M_A    0.0000
     55 H         203.1075   43.5284   69.5726 H         7      M_A    0.0000
     56 H         202.3968   44.4856   68.2813 H         7      M_A    0.0000
     57 C         202.8690   46.6529   70.2448 C.3       8      M_A    0.0000
     58 C         203.5404   47.9914   69.9537 C.3       8      M_A    0.0000
     59 O         202.5656   49.0302   69.8725 O.3       8      M_A    0.0000
     60 H         202.8657   46.4551   71.3227 H         8      M_A    0.0000
     61 H         201.8158   46.6949   69.9422 H         8      M_A    0.0000
     62 H         204.3256   48.2270   70.6866 H         8      M_A    0.0000
     63 H         204.0350   47.9563   68.9746 H         8      M_A    0.0000
     64 C         203.1186   50.2941   70.1678 C.3       9      M_A    0.0000
     65 C         202.2334   51.4313   69.6675 C.3       9      M_A    0.0000
     66 O         202.3767   52.5786   70.5037 O.3       9      M_A    0.0000
     67 H         204.1189   50.3677   69.7263 H         9      M_A    0.0000
     68 H         203.2593   50.3855   71.2516 H         9      M_A    0.0000
     69 H         202.4270   51.6707   68.6119 H         9      M_A    0.0000
     70 H         201.1778   51.1371   69.7269 H         9      M_A    0.0000
     71 C         201.2120   52.8262   71.2602 C.3      10      M_A    0.0000
     72 C         201.4139   53.9638   72.2564 C.3      10      M_A    0.0000
     73 O         200.1570   54.5228   72.6353 O.3      10      M_A    0.0000
     74 H         200.9142   51.9104   71.7834 H        10      M_A    0.0000
     75 H         200.3839   53.0706   70.5841 H        10      M_A    0.0000
     76 H         201.9984   53.6463   73.1320 H        10      M_A    0.0000
     77 H         201.9826   54.7760   71.7858 H        10      M_A    0.0000
     78 C         199.5256   55.1761   71.5560 C.3      11      M_A    0.0000
     79 C         198.6514   56.3342   72.0271 C.3      11      M_A    0.0000
     80 O         199.4586   57.4594   72.3711 O.3      11      M_A    0.0000
     81 H         198.9272   54.4529   70.9905 H        11      M_A    0.0000
     82 H         200.2870   55.5480   70.8599 H        11      M_A    0.0000
     83 H         197.8814   56.5970   71.2874 H        11      M_A    0.0000
     84 H         198.1147   56.0495   72.9410 H        11      M_A    0.0000
     85 C         199.9455   57.3725   73.6924 C.3      12      M_A    0.0000
     86 C         201.2917   56.6576   73.7548 C.3      12      M_A    0.0000
     87 O         202.1909   57.3629   74.6091 O.3      12      M_A    0.0000
     88 H         199.2104   56.8556   74.3196 H        12      M_A    0.0000
     89 H         200.0438   58.3813   74.1111 H        12      M_A    0.0000
     90 H         201.1861   55.6052   74.0556 H        12      M_A    0.0000
     91 H         201.7560   56.6475   72.7604 H        12      M_A    0.0000
     92 C         203.5203   57.2977   74.1415 C.3      13      M_A    0.0000
     93 C         204.5262   57.3108   75.2883 C.3      13      M_A    0.0000
     94 O         205.8437   57.0667   74.7977 O.3      13      M_A    0.0000
     95 H         203.7094   58.1345   73.4595 H        13      M_A    0.0000
     96 H         203.6521   56.3866   73.5454 H        13      M_A    0.0000
     97 H         204.4752   58.2419   75.8709 H        13      M_A    0.0000
     98 H         204.3034   56.4970   75.9900 H        13      M_A    0.0000
     99 C         206.6185   56.3287   75.7172 C.3      14      M_A    0.0000
    100 C         207.6665   57.1995   76.4033 C.3      14      M_A    0.0000
    101 O         208.9156   56.5134   76.4733 O.3      14      M_A    0.0000
    102 H         207.0992   55.4904   75.2003 H        14      M_A    0.0000
    103 H         205.9599   55.8810   76.4712 H        14      M_A    0.0000
    104 H         207.7683   58.1812   75.9185 H        14      M_A    0.0000
    105 H         207.3662   57.3988   77.4399 H        14      M_A    0.0000
    106 C         209.6806   56.6937   75.3017 C.3      15      M_A    0.0000
    107 C         210.1450   58.1382   75.1443 C.3      15      M_A    0.0000
    108 O         211.4185   58.3218   75.7611 O.3      15      M_A    0.0000
    109 H         209.0922   56.3858   74.4299 H        15      M_A    0.0000
    110 H         210.5510   56.0272   75.3292 H        15      M_A    0.0000
    111 H         210.1533   58.4564   74.0918 H        15      M_A    0.0000
    112 H         209.4517   58.8123   75.6633 H        15      M_A    0.0000
    113 C         211.3083   58.9600   77.0145 C.3      16      M_A    0.0000
    114 C         212.6660   59.4152   77.5404 C.3      16      M_A    0.0000
    115 O         212.5018   60.4276   78.5323 O.3      16      M_A    0.0000
    116 H         210.8311   58.2808   77.7299 H        16      M_A    0.0000
    117 H         210.6387   59.8239   76.9253 H        16      M_A    0.0000
    118 H         213.2668   58.5734   77.9141 H        16      M_A    0.0000
    119 H         213.2476   59.8708   76.7288 H        16      M_A    0.0000
    120 C         213.0850   60.0577   79.7625 C.3      17      M_A    0.0000
    121 C         213.2428   61.2527   80.6975 C.3      17      M_A    0.0000
    122 O         213.9866   60.8825   81.8575 O.3      17      M_A    0.0000
    123 H         214.0574   59.5866   79.5791 H        17      M_A    0.0000
    124 H         212.4646   59.2921   80.2438 H        17      M_A    0.0000
    125 H         213.6889   62.1190   80.1877 H        17      M_A    0.0000
    126 H         212.2582   61.5803   81.0547 H        17      M_A    0.0000
    127 C         215.3568   60.7089   81.5700 C.3      18      M_A    0.0000
    128 C         216.0093   62.0094   81.1115 C.3      18      M_A    0.0000
    129 O         216.5433   62.7192   82.2281 O.3      18      M_A    0.0000
    130 H         215.4744   59.9334   80.8046 H        18      M_A    0.0000
    131 H         215.8712   60.3327   82.4625 H        18      M_A    0.0000
    132 H         216.7706   61.8379   80.3367 H        18      M_A    0.0000
    133 H         215.2553   62.6671   80.6606 H        18      M_A    0.0000
    134 C         217.0781   63.9687   81.8496 C.3      19      M_A    0.0000
    135 C         215.9897   64.9391   81.4014 C.3      19      M_A    0.0000
    136 O         216.2327   66.2403   81.9339 O.3      19      M_A    0.0000
    137 H         217.8128   63.8246   81.0494 H        19      M_A    0.0000
    138 H         217.6310   64.3986   82.6935 H        19      M_A    0.0000
    139 H         215.8819   64.9611   80.3073 H        19      M_A    0.0000
    140 H         215.0178   64.6203   81.7993 H        19      M_A    0.0000
    141 C         217.6122   66.5202   82.0286 C.3      20      M_A    0.0000
    142 C         217.9406   67.9268   81.5379 C.3      20      M_A    0.0000
    143 O         219.0134   68.4814   82.2978 O.3      20      M_A    0.0000
    144 H         218.1764   65.7756   81.4555 H        20      M_A    0.0000
    145 H         217.9357   66.4079   83.0704 H        20      M_A    0.0000
    146 H         218.1527   67.9482   80.4592 H        20      M_A    0.0000
    147 H         217.0786   68.5878   81.6944 H        20      M_A    0.0000
    148 C         219.4003   69.7487   81.8134 C.3      21      M_A    0.0000
    149 C         218.2740   70.7704   81.9346 C.3      21      M_A    0.0000
    150 O         218.7723   72.0892   81.7153 O.3      21      M_A    0.0000
    151 H         219.7218   69.6584   80.7696 H        21      M_A    0.0000
    152 H         220.2777   70.0989   82.3704 H        21      M_A    0.0000
    153 H         217.4322   70.5373   81.2666 H        21      M_A    0.0000
    154 H         217.8685   70.7602   82.9544 H        21      M_A    0.0000
    155 C         217.8958   72.8566   80.9194 C.3      22      M_A    0.0000
    156 C         217.8677   74.3184   81.3545 C.3      22      M_A    0.0000
    157 O         217.1229   75.1011   80.4225 O.3      22      M_A    0.0000
    158 H         216.8890   72.4262   80.9653 H        22      M_A    0.0000
    159 H         218.2052   72.7900   79.8694 H        22      M_A    0.0000
    160 H         217.4879   74.4363   82.3797 H        22      M_A    0.0000
    161 H         218.8860   74.7277   81.3556 H        22      M_A    0.0000
    162 C         216.0590   75.7876   81.0447 C.3      23      M_A    0.0000
    163 C         216.5552   76.7417   82.1266 C.3      23      M_A    0.0000
    164 O         216.4425   78.0945   81.6873 O.3      23      M_A    0.0000
    165 H         215.3552   75.0629   81.4697 H        23      M_A    0.0000
    166 H         215.4958   76.3479   80.2887 H        23      M_A    0.0000
    167 H         216.0411   76.5813   83.0853 H        23      M_A    0.0000
    168 H         217.6219   76.5679   82.3175 H        23      M_A    0.0000
    169 C         216.4983   79.0034   82.7649 C.3      24      M_A    0.0000
    170 C         217.6099   80.0321   82.5823 C.3      24      M_A    0.0000
    171 O         217.1144   81.3485   82.8223 O.3      24      M_A    0.0000
    172 H         216.6399   78.4519   83.7013 H        24      M_A    0.0000
    173 H         215.5333   79.5158   82.8591 H        24      M_A    0.0000
    174 H         218.4864   79.8073   83.2070 H        24      M_A    0.0000
    175 H         217.9626   80.0207   81.5431 H        24      M_A    0.0000
    176 C         218.0029   82.3383   82.3520 C.3      25      M_A    0.0000
    177 C         217.7106   83.7023   82.9693 C.3      25      M_A    0.0000
    178 O         218.8777   84.5226   82.9398 O.3      25      M_A    0.0000
    179 H         217.9427   82.3941   81.2592 H        25      M_A    0.0000
    180 H         219.0332   82.0419   82.5830 H        25      M_A    0.0000
    181 H         216.8536   84.1970   82.4895 H        25      M_A    0.0000
    182 H         217.4440   83.5843   84.0273 H        25      M_A    0.0000
    183 C         218.5718   85.8803   83.1707 C.3      26      M_A    0.0000
    184 C         217.6292   86.0555   84.3573 C.3      26      M_A    0.0000
    185 O         217.8005   87.3452   84.9431 O.3      26      M_A    0.0000
    186 H         218.1303   86.3145   82.2664 H        26      M_A    0.0000
    187 H         219.4994   86.4368   83.3510 H        26      M_A    0.0000
    188 H         216.5809   85.8698   84.0822 H        26      M_A    0.0000
    189 H         217.8748   85.3267   85.1403 H        26      M_A    0.0000
    190 C         216.6732   87.7339   85.6971 C.3      27      M_A    0.0000
    191 C         216.9349   89.0091   86.4923 C.3      27      M_A    0.0000
    192 O         215.7136   89.7080   86.7287 O.3      27      M_A    0.0000
    193 H         216.3844   86.9182   86.3697 H        27      M_A    0.0000
    194 H         215.8206   87.8869   85.0245 H        27      M_A    0.0000
    195 H         217.4760   88.8078   87.4282 H        27      M_A    0.0000
    196 H         217.5706   89.6886   85.9103 H        27      M_A    0.0000
    197 C         215.5275   89.9927   88.0979 C.3      28      M_A    0.0000
    198 C         214.4288   91.0278   88.3177 C.3      28      M_A    0.0000
    199 O         214.8730   92.0421   89.2176 O.3      28      M_A    0.0000
    200 H         216.4720   90.3422   88.5302 H        28      M_A    0.0000
    201 H         215.2753   89.0680   88.6309 H        28      M_A    0.0000
    202 H         214.0684   91.4542   87.3703 H        28      M_A    0.0000
    203 H         213.5593   90.5550   88.7919 H        28      M_A    0.0000
    204 C         214.3132   93.2999   88.9097 C.3      29      M_A    0.0000
    205 C         212.9491   93.1650   88.2402 C.3      29      M_A    0.0000
    206 O         212.1559   94.3248   88.4880 O.3      29      M_A    0.0000
    207 H         215.0008   93.8579   88.2640 H        29      M_A    0.0000
    208 H         214.2162   93.8900   89.8290 H        29      M_A    0.0000
    209 H         213.0368   92.9545   87.1645 H        29      M_A    0.0000
    210 H         212.4016   92.3190   88.6748 H        29      M_A    0.0000
    211 C         211.0477   94.3993   87.6182 C.3      30      M_A    0.0000
    212 C         210.2292   95.6657   87.8495 C.3      30      M_A    0.0000
    213 O         209.4961   96.0065   86.6738 O.3      30      M_A    0.0000
    214 H         210.4197   93.5108   87.7493 H        30      M_A    0.0000
    215 H         211.3979   94.3710   86.5793 H        30      M_A    0.0000
    216 H         209.5725   95.5777   88.7270 H        30      M_A    0.0000
    217 H         210.8987   96.5117   88.0508 H        30      M_A    0.0000
    218 C         208.3370   96.7522   86.9749 C.3      31      M_A    0.0000
    219 C         208.5939   97.7823   88.0703 C.3      31      M_A    0.0000
    220 O         208.0390   99.0454   87.7061 O.3      31      M_A    0.0000
    221 H         207.5318   96.0714   87.2737 H        31      M_A    0.0000
    222 H         207.9839   97.2580   86.0682 H        31      M_A    0.0000
    223 H         208.2259   97.4435   89.0495 H        31      M_A    0.0000
    224 H         209.6734   97.9425   88.1868 H        31      M_A    0.0000
    225 C         206.8646   98.9015   86.9378 C.3      32      M_A    0.0000
    226 C         205.6873   99.6492   87.5559 C.3      32      M_A    0.0000
    227 O         204.5954   99.7039   86.6390 O.3      32      M_A    0.0000
    228 H         206.6259   97.8373   86.8307 H        32      M_A    0.0000
    229 H         207.0461   99.2739   85.9224 H        32      M_A    0.0000
    230 H         205.3862   99.2181   88.5216 H        32      M_A    0.0000
    231 H         205.9707  100.6898   87.7593 H        32      M_A    0.0000
    232 C         203.5635  100.5480   87.1003 C.3      33      M_A    0.0000
    233 C         203.9715  102.0173   87.0588 C.3      33      M_A    0.0000
    234 O         202.8792  102.8253   86.6231 O.3      33      M_A    0.0000
    235 H         203.2832  100.2593   88.1197 H        33      M_A    0.0000
    236 H         202.6675  100.3964   86.4864 H        33      M_A    0.0000
    237 H         204.3725  102.3613   88.0232 H        33      M_A    0.0000
    238 H         204.7736  102.1618   86.3239 H        33      M_A    0.0000
    239 C         201.6429  102.1618   86.7709 C.3      34      M_A    0.0000
    240 C         200.4643  103.1190   86.6232 C.3      34      M_A    0.0000
    241 O         199.3005  102.4134   86.1949 O.3      34      M_A    0.0000
    242 H         201.6095  101.6644   87.7468 H        34      M_A    0.0000
    243 H         201.5663  101.3640   86.0224 H        34      M_A    0.0000
    244 H         200.2781  103.6892   87.5448 H        34      M_A    0.0000
    245 H         200.6799  103.8596   85.8424 H        34      M_A    0.0000
    246 C         198.2971  103.2887   85.7286 C.3      35      M_A    0.0000
    247 C         198.0271  104.4195   86.7163 C.3      35      M_A    0.0000
    248 O         197.4691  105.5466   86.0424 O.3      35      M_A    0.0000
    249 H         197.3783  102.7228   85.5372 H        35      M_A    0.0000
    250 H         198.6005  103.7080   84.7617 H        35      M_A    0.0000
    251 H         197.3946  104.0927   87.5544 H        35      M_A    0.0000
    252 H         198.9709  104.7620   87.1593 H        35      M_A    0.0000
    253 C         196.1586  105.8269   86.4833 C.3      36      M_A    0.0000
    254 C         195.6394  107.1448   85.9172 C.3      36      M_A    0.0000
    255 O         194.7868  107.7908   86.8614 O.3      36      M_A    0.0000
    256 H         196.1384  105.8487   87.5788 H        36      M_A    0.0000
    257 H         195.4916  105.0090   86.1851 H        36      M_A    0.0000
    258 H         196.4568  107.8036   85.5900 H        36      M_A    0.0000
    259 H         195.0250  106.9534   85.0282 H        36      M_A    0.0000
    260 C         194.8369  109.1955   86.7397 C.3      37      M_A    0.0000
    261 C         195.0190  109.6330   85.2897 C.3      37      M_A    0.0000
    262 O         194.5788  110.9792   85.1168 O.3      37      M_A    0.0000
    263 H         195.6504  109.5874   87.3608 H        37      M_A    0.0000
    264 H         193.9136  109.6288   87.1427 H        37      M_A    0.0000
    265 H         196.0541  109.4962   84.9446 H        37      M_A    0.0000
    266 H         194.3922  109.0173   84.6321 H        37      M_A    0.0000
    267 C         195.3388  111.8838   85.8877 C.3      38      M_A    0.0000
    268 C         195.0046  113.3342   85.5531 C.3      38      M_A    0.0000
    269 O         194.2948  113.9430   86.6308 O.3      38      M_A    0.0000
    270 H         196.4061  111.6926   85.7290 H        38      M_A    0.0000
    271 H         195.1540  111.6989   86.9528 H        38      M_A    0.0000
    272 H         195.8998  113.9108   85.2786 H        38      M_A    0.0000
    273 H         194.3362  113.3726   84.6836 H        38      M_A    0.0000
    274 C         193.6660  115.1423   86.2348 C.3      39      M_A    0.0000
    275 C         194.0754  115.5589   84.8256 C.3      39      M_A    0.0000
    276 O         193.1462  116.5033   84.2959 O.3      39      M_A    0.0000
    277 H         193.9073  115.9354   86.9516 H        39      M_A    0.0000
    278 H         192.5777  115.0149   86.2804 H        39      M_A    0.0000
    279 H         195.1064  115.9396   84.7913 H        39      M_A    0.0000
    280 H         194.0466  114.6899   84.1558 H        39      M_A    0.0000
    281 C         192.6317  117.3530   85.2977 C.3      40      M_A    0.0000
    282 C         192.4795  118.7875   84.8015 C.3      40      M_A    0.0000
    283 O         191.1291  119.2243   84.9477 O.3      40      M_A    0.0000
    284 H         193.2867  117.3213   86.1758 H        40      M_A    0.0000
    285 H         191.6590  116.9733   85.6327 H        40      M_A    0.0000
    286 H         193.1841  119.4718   85.2960 H        40      M_A    0.0000
    287 H         192.7048  118.8377   83.7286 H        40      M_A    0.0000
    288 C         190.2760  118.6206   84.0000 C.3      41      M_A    0.0000
    289 C         190.5012  119.1780   82.5979 C.3      41      M_A    0.0000
    290 O         189.4136  120.0187   82.2156 O.3      41      M_A    0.0000
    291 H         189.2328  118.7638   84.3036 H        41      M_A    0.0000
    292 H         190.4438  117.5369   83.9975 H        41      M_A    0.0000
    293 H         191.4667  119.6972   82.5108 H        41      M_A    0.0000
    294 H         190.5270  118.3577   81.8694 H        41      M_A    0.0000
    295 C         189.7951  121.3754   82.1522 C.3      42      M_A    0.0000
    296 C         190.8573  121.6166   81.0841 C.3      42      M_A    0.0000
    297 O         190.7502  122.9416   80.5656 O.3      42      M_A    0.0000
    298 H         190.1615  121.6984   83.1333 H        42      M_A    0.0000
    299 H         188.9131  121.9920   81.9412 H        42      M_A    0.0000
    300 H         191.8707  121.4058   81.4554 H        42      M_A    0.0000
    301 H         190.6944  120.9399   80.2356 H        42      M_A    0.0000
    302 C         191.4227  123.8794   81.3772 C.3      43      M_A    0.0000
    303 C         190.9331  125.3020   81.1248 C.3      43      M_A    0.0000
    304 O         189.8816  125.6347   82.0300 O.3      43      M_A    0.0000
    305 H         192.5016  123.8106   81.1981 H        43      M_A    0.0000
    306 H         191.2745  123.6200   82.4324 H        43      M_A    0.0000
    307 H         191.7528  126.0338   81.1670 H        43      M_A    0.0000
    308 H         190.5064  125.3770   80.1164 H        43      M_A    0.0000
    309 C         188.6145  125.5596   81.4141 C.3      44      M_A    0.0000
    310 C         188.4016  126.6924   80.4149 C.3      44      M_A    0.0000
    311 O         187.1165  126.5830   79.8046 O.3      44      M_A    0.0000
    312 H         187.8331  125.5775   82.1822 H        44      M_A    0.0000
    313 H         188.5145  124.5940   80.9040 H        44      M_A    0.0000
    314 H         188.5511  127.6805   80.8737 H        44      M_A    0.0000
    315 H         189.1355  126.6170   79.6024 H        44      M_A    0.0000
    316 C         186.6609  127.8244   79.3127 C.3      45      M_A    0.0000
    317 C         187.1978  128.1118   77.9140 C.3      45      M_A    0.0000
    318 O         186.2572  128.8833   77.1685 O.3      45      M_A    0.0000
    319 H         186.9547  128.6218   80.0046 H        45      M_A    0.0000
    320 H         185.5644  127.8286   79.2951 H        45      M_A    0.0000
    321 H         188.1864  128.5924   77.9425 H        45      M_A    0.0000
    322 H         187.3294  127.1714   77.3638 H        45      M_A    0.0000
    323 C         186.6538  130.2328   77.0590 C.3      46      M_A    0.0000
    324 C         185.6270  131.0658   76.2980 C.3      46      M_A    0.0000
    325 O         186.2789  131.9466   75.3843 O.3      46      M_A    0.0000
    326 H         187.6304  130.2879   76.5648 H        46      M_A    0.0000
    327 H         186.7988  130.6521   78.0619 H        46      M_A    0.0000
    328 H         184.8786  130.4375   75.7936 H        46      M_A    0.0000
    329 H         185.0713  131.7037   76.9971 H        46      M_A    0.0000
    330 C         186.5383  131.3216   74.1464 C.3      47      M_A    0.0000
    331 C         185.2520  131.0083   73.3885 C.3      47      M_A    0.0000
    332 O         185.4999  130.9631   71.9841 O.3      47      M_A    0.0000
    333 H         187.1147  130.4046   74.3135 H        47      M_A    0.0000
    334 H         187.1765  131.9725   73.5367 H        47      M_A    0.0000
    335 H         184.7766  130.0840   73.7475 H        47      M_A    0.0000
    336 H         184.5204  131.8111   73.5462 H        47      M_A    0.0000
    337 C         184.5783  130.1312   71.3143 C.3      48      M_A    0.0000
    338 C         183.1543  130.3395   71.8202 C.3      48      M_A    0.0000
    339 O         182.2147  130.1127   70.7707 O.3      48      M_A    0.0000
    340 H         184.8761  129.0835   71.4358 H        48      M_A    0.0000
    341 H         184.6206  130.3342   70.2374 H        48      M_A    0.0000
    342 H         182.9355  129.7209   72.7026 H        48      M_A    0.0000
    343 H         183.0183  131.3821   72.1350 H        48      M_A    0.0000
    344 C         180.8997  129.9756   71.2630 C.3      49      M_A    0.0000
    345 C         180.5363  131.0980   72.2302 C.3      49      M_A    0.0000
    346 O         179.3223  131.7296   71.8265 O.3      49      M_A    0.0000
    347 H         180.7925  129.0012   71.7529 H        49      M_A    0.0000
    348 H         180.1952  129.9702   70.4226 H        49      M_A    0.0000
    349 H         180.4850  130.7454   73.2705 H        49      M_A    0.0000
    350 H         181.3102  131.8758   72.2076 H        49      M_A    0.0000
    351 C         178.5396  132.1198   72.9335 C.3      50      M_A    0.0000
    352 C         177.1395  132.5556   72.5128 C.3      50      M_A    0.0000
    353 O         176.2962  132.6925   73.6556 O.3      50      M_A    0.0000
    354 H         179.0451  132.9301   73.4711 H        50      M_A    0.0000
    355 H         178.4691  131.2854   73.6417 H        50      M_A    0.0000
    356 H         177.1577  133.4741   71.9085 H        50      M_A    0.0000
    357 H         176.6811  131.7827   71.8828 H        50      M_A    0.0000
    358 C         176.0504  131.4511   74.2791 C.3      51      M_A    0.0000
    359 C         175.1468  130.5602   73.4324 C.3      51      M_A    0.0000
    360 O         173.8135  130.5772   73.9404 O.3      51      M_A    0.0000
    361 H         175.6032  131.6195   75.2653 H        51      M_A    0.0000
    362 H         177.0038  130.9411   74.4629 H        51      M_A    0.0000
    363 H         175.1798  130.8326   72.3676 H        51      M_A    0.0000
    364 H         175.4860  129.5183   73.4933 H        51      M_A    0.0000
    365 C         173.2097  131.8434   73.7895 C.3      52      M_A    0.0000
    366 C         173.1295  132.2625   72.3249 C.3      52      M_A    0.0000
    367 O         172.4268  133.4978   72.1984 O.3      52      M_A    0.0000
    368 H         173.7698  132.5867   74.3682 H        52      M_A    0.0000
    369 H         172.2024  131.8201   74.2224 H        52      M_A    0.0000
    370 H         174.1223  132.3093   71.8544 H        52      M_A    0.0000
    371 H         172.5544  131.5215   71.7551 H        52      M_A    0.0000
    372 C         172.6287  134.0902   70.9340 C.3      53      M_A    0.0000
    373 C         172.4828  133.0767   69.8031 C.3      53      M_A    0.0000
    374 O         172.4735  133.7389   68.5392 O.3      53      M_A    0.0000
    375 H         173.6203  134.5557   70.9025 H        53      M_A    0.0000
    376 H         171.9081  134.9049   70.7945 H        53      M_A    0.0000
    377 H         173.2555  132.2955   69.8473 H        53      M_A    0.0000
    378 H         171.5184  132.5596   69.8868 H        53      M_A    0.0000
    379 C         171.9994  132.8991   67.5095 C.3      54      M_A    0.0000
    380 C         170.8087  133.5132   66.7799 C.3      54      M_A    0.0000
    381 O         170.4928  132.7531   65.6145 O.3      54      M_A    0.0000
    382 H         171.7272  131.9240   67.9291 H        54      M_A    0.0000
    383 H         172.8093  132.7054   66.7959 H        54      M_A    0.0000
    384 H         169.9361  133.6286   67.4390 H        54      M_A    0.0000
    385 H         171.0644  134.5214   66.4298 H        54      M_A    0.0000
    386 C         169.1053  132.7339   65.3596 C.3      55      M_A    0.0000
    387 C         168.4908  134.1265   65.4608 C.3      55      M_A    0.0000
    388 O         167.3170  134.2126   64.6542 O.3      55      M_A    0.0000
    389 H         168.6143  132.0492   66.0605 H        55      M_A    0.0000
    390 H         168.9247  132.3227   64.3591 H        55      M_A    0.0000
    391 H         168.2900  134.4139   66.5030 H        55      M_A    0.0000
    392 H         169.1911  134.8736   65.0659 H        55      M_A    0.0000
    393 C         166.3384  135.0448   65.2375 C.3      56      M_A    0.0000
    394 C         166.9189  136.3891   65.6652 C.3      56      M_A    0.0000
    395 O         166.0909  137.4572   65.2078 O.3      56      M_A    0.0000
    396 H         165.8886  134.5337   66.0962 H        56      M_A    0.0000
    397 H         165.5238  135.2058   64.5212 H        56      M_A    0.0000
    398 H         167.0852  136.4397   66.7510 H        56      M_A    0.0000
    399 H         167.9003  136.5383   65.1971 H        56      M_A    0.0000
    400 C         166.3886  138.6707   65.8629 C.3      57      M_A    0.0000
    401 C         166.1567  139.8761   64.9571 C.3      57      M_A    0.0000
    402 O         165.7900  141.0173   65.7311 O.3      57      M_A    0.0000
    403 H         167.4268  138.6518   66.2133 H        57      M_A    0.0000
    404 H         165.7679  138.7604   66.7625 H        57      M_A    0.0000
    405 H         167.0251  140.0823   64.3148 H        57      M_A    0.0000
    406 H         165.3149  139.6791   64.2812 H        57      M_A    0.0000
    407 C         166.9202  141.7175   66.2029 C.3      58      M_A    0.0000
    408 C         166.7538  143.2269   66.0570 C.3      58      M_A    0.0000
    409 O         167.0399  143.8811   67.2924 O.3      58      M_A    0.0000
    410 H         167.8117  141.3788   65.6630 H        58      M_A    0.0000
    411 H         167.0910  141.4653   67.2564 H        58      M_A    0.0000
    412 H         167.3597  143.6309   65.2331 H        58      M_A    0.0000
    413 H         165.7101  143.4663   65.8165 H        58      M_A    0.0000
    414 C         166.1448  144.9419   67.5449 C.3      59      M_A    0.0000
    415 C         166.0341  145.8866   66.3522 C.3      59      M_A    0.0000
    416 O         165.2034  147.0009   66.6750 O.3      59      M_A    0.0000
    417 H         166.4701  145.4904   68.4361 H        59      M_A    0.0000
    418 H         165.1557  144.5341   67.7855 H        59      M_A    0.0000
    419 H         167.0206  146.2071   65.9870 H        59      M_A    0.0000
    420 H         165.5480  145.3733   65.5128 H        59      M_A    0.0000
    421 C         165.5293  148.1391   65.9078 C.3      60      M_A    0.0000
    422 C         165.8235  147.7786   64.4550 C.3      60      M_A    0.0000
    423 O         165.4524  148.8516   63.5908 O.3      60      M_A    0.0000
    424 H         166.3905  148.6476   66.3559 H        60      M_A    0.0000
    425 H         164.7002  148.8557   65.9495 H        60      M_A    0.0000
    426 H         166.8721  147.4820   64.3079 H        60      M_A    0.0000
    427 H         165.2154  146.9162   64.1535 H        60      M_A    0.0000
    428 C         165.2996  150.0646   64.2948 C.3      61      M_A    0.0000
    429 C         165.7110  151.2664   63.4500 C.3      61      M_A    0.0000
    430 O         164.6992  152.2717   63.4883 O.3      61      M_A    0.0000
    431 H         165.8892  150.0283   65.2178 H        61      M_A    0.0000
    432 H         164.2544  150.1743   64.6081 H        61      M_A    0.0000
    433 H         166.6914  151.6644   63.7491 H        61      M_A    0.0000
    434 H         165.8088  150.9680   62.3984 H        61      M_A    0.0000
    435 C         164.8306  153.1903   62.4257 C.3      62      M_A    0.0000
    436 C         166.2885  153.5626   62.1748 C.3      62      M_A    0.0000
    437 O         166.4285  154.1995   60.9056 O.3      62      M_A    0.0000
    438 H         164.2405  154.0878   62.6432 H        62      M_A    0.0000
    439 H         164.3982  152.7580   61.5153 H        62      M_A    0.0000
    440 H         166.7026  154.1780   62.9865 H        62      M_A    0.0000
    441 H         166.9041  152.6549   62.1332 H        62      M_A    0.0000
    442 C         167.6355  154.9237   60.8113 C.3      63      M_A    0.0000
    443 C         168.2276  154.8588   59.4069 C.3      63      M_A    0.0000
    444 O         169.6450  154.7080   59.4707 O.3      63      M_A    0.0000
    445 H         168.3520  154.5371   61.5449 H        63      M_A    0.0000
    446 H         167.4550  155.9695   61.0876 H        63      M_A    0.0000
    447 H         167.7617  154.0698   58.7990 H        63      M_A    0.0000
    448 H         168.0420  155.8029   58.8791 H        63      M_A    0.0000
    449 C         170.2746  155.1536   58.2894 C.3      64      M_A    0.0000
    450 C         169.4445  154.8356   57.0497 C.3      64      M_A    0.0000
    451 O         170.2455  154.1769   56.0697 O.3      64      M_A    0.0000
    452 H         171.2678  154.6973   58.2100 H        64      M_A    0.0000
    453 H         170.4435  156.2354   58.3529 H        64      M_A    0.0000
    454 H         168.5430  154.2557   57.2947 H        64      M_A    0.0000
    455 H         169.0940  155.7664   56.5858 H        64      M_A    0.0000
    456 C         169.5624  153.0968   55.4721 C.3      65      M_A    0.0000
    457 C         170.0358  152.8471   54.0435 C.3      65      M_A    0.0000
    458 O         169.5829  151.5743   53.5844 O.3      65      M_A    0.0000
    459 H         168.4843  153.2928   55.4872 H        65      M_A    0.0000
    460 H         169.7135  152.1928   56.0742 H        65      M_A    0.0000
    461 H         169.7348  153.6559   53.3621 H        65      M_A    0.0000
    462 H         171.1323  152.8127   54.0138 H        65      M_A    0.0000
    463 C         169.4649  151.5341   52.1791 C.3      66      M_A    0.0000
    464 C         170.6211  152.2542   51.4920 C.3      66      M_A    0.0000
    465 O         170.6186  151.9774   50.0923 O.3      66      M_A    0.0000
    466 H         168.5085  151.9775   51.8797 H        66      M_A    0.0000
    467 H         169.4309  150.4897   51.8464 H        66      M_A    0.0000
    468 H         170.6112  153.3352   51.6928 H        66      M_A    0.0000
    469 H         171.5774  151.8789   51.8783 H        66      M_A    0.0000
    470 C         169.3086  151.8643   49.5812 C.3      67      M_A    0.0000
    471 C         169.0987  152.7505   48.3574 C.3      67      M_A    0.0000
    472 O         167.9805  152.2939   47.5978 O.3      67      M_A    0.0000
    473 H         168.5869  152.1206   50.3652 H        67      M_A    0.0000
    474 H         169.1096  150.8185   49.3179 H        67      M_A    0.0000
    475 H         169.0001  153.8115   48.6286 H        67      M_A    0.0000
    476 H         169.9699  152.6831   47.6934 H        67      M_A    0.0000
    477 C         167.8721  152.9695   46.3641 C.3      68      M_A    0.0000
    478 C         168.5953  154.3125   46.3875 C.3      68      M_A    0.0000
    479 O         168.6093  154.8932   45.0842 O.3      68      M_A    0.0000
    480 H         166.8139  153.1111   46.1166 H        68      M_A    0.0000
    481 H         168.2872  152.3407   45.5672 H        68      M_A    0.0000
    482 H         168.1681  154.9979   47.1336 H        68      M_A    0.0000
    483 H         169.6455  154.1664   46.6706 H        68      M_A    0.0000
    484 C         167.3203  154.9313   44.5121 C.3      69      M_A    0.0000
    485 C         167.3708  154.8147   42.9919 C.3      69      M_A    0.0000
    486 O         166.0919  155.1009   42.4277 O.3      69      M_A    0.0000
    487 H         166.8170  155.8594   44.8062 H        69      M_A    0.0000
    488 H         166.7146  154.1155   44.9247 H        69      M_A    0.0000
    489 H         168.1582  155.4464   42.5558 H        69      M_A    0.0000
    490 H         167.6104  153.7831   42.7040 H        69      M_A    0.0000
    491 C         166.1090  155.0208   41.0193 C.3      70      M_A    0.0000
    492 C         166.6490  156.2987   40.3850 C.3      70      M_A    0.0000
    493 O         166.9947  156.0694   39.0198 O.3      70      M_A    0.0000
    494 H         165.0975  154.8117   40.6528 H        70      M_A    0.0000
    495 H         166.7244  154.1671   40.7108 H        70      M_A    0.0000
    496 H         165.9486  157.1397   40.4915 H        70      M_A    0.0000
    497 H         167.5744  156.6042   40.8897 H        70      M_A    0.0000
    498 C         166.0496  155.2486   38.3691 C.3      71      M_A    0.0000
    499 C         165.7454  155.7425   36.9582 C.3      71      M_A    0.0000
    500 O         165.5717  154.6386   36.0709 O.3      71      M_A    0.0000
    501 H         165.1304  155.2068   38.9644 H        71      M_A    0.0000
    502 H         166.4287  154.2204   38.3264 H        71      M_A    0.0000
    503 H         164.8808  156.4216   36.9365 H        71      M_A    0.0000
    504 H         166.5968  156.3170   36.5717 H        71      M_A    0.0000
    505 C         164.9225  155.0204   34.8779 C.3      72      M_A    0.0000
    506 C         165.4277  156.3643   34.3624 C.3      72      M_A    0.0000
    507 O         165.2058  156.4740   32.9572 O.3      72      M_A    0.0000
    508 H         163.8405  155.0598   35.0470 H        72      M_A    0.0000
    509 H         165.0810  154.2492   34.1145 H        72      M_A    0.0000
    510 H         164.9861  157.2089   34.9110 H        72      M_A    0.0000
    511 H         166.5130  156.4369   34.5092 H        72      M_A    0.0000
    512 C         165.6348  157.7198   32.4530 C.3      73      M_A    0.0000
    513 C         166.5794  158.4278   33.4192 C.3      73      M_A    0.0000
    514 O         167.3482  159.4135   32.7314 O.3      73      M_A    0.0000
    515 H         164.7625  158.3493   32.2433 H        73      M_A    0.0000
    516 H         166.1370  157.5692   31.4898 H        73      M_A    0.0000
    517 H         166.0446  158.8563   34.2792 H        73      M_A    0.0000
    518 H         167.2989  157.7093   33.8323 H        73      M_A    0.0000
    519 C         166.5410  160.4613   32.2405 C.3      74      M_A    0.0000
    520 C         167.3711  161.5468   31.5625 C.3      74      M_A    0.0000
    521 O         167.0962  161.5826   30.1628 O.3      74      M_A    0.0000
    522 H         165.9554  160.8876   33.0628 H        74      M_A    0.0000
    523 H         165.8117  160.0560   31.5288 H        74      M_A    0.0000
    524 H         167.2247  162.5308   32.0310 H        74      M_A    0.0000
    525 H         168.4396  161.3161   31.6605 H        74      M_A    0.0000
    526 C         168.0000  162.4160   29.4708 C.3      75      M_A    0.0000
    527 C         168.4775  161.7782   28.1700 C.3      75      M_A    0.0000
    528 O         169.5861  162.5020   27.6381 O.3      75      M_A    0.0000
    529 H         168.8539  162.6461   30.1180 H        75      M_A    0.0000
    530 H         167.5170  163.3767   29.2552 H        75      M_A    0.0000
    531 H         168.7111  160.7109   28.2955 H        75      M_A    0.0000
    532 H         167.6837  161.8318   27.4141 H        75      M_A    0.0000
    533 C         170.7636  162.2822   28.3835 C.3      76      M_A    0.0000
    534 C         171.2083  160.8241   28.3247 C.3      76      M_A    0.0000
    535 O         172.1271  160.6267   27.2511 O.3      76      M_A    0.0000
    536 H         170.6009  162.5891   29.4229 H        76      M_A    0.0000
    537 H         171.5630  162.9275   27.9998 H        76      M_A    0.0000
    538 H         171.6230  160.4805   29.2834 H        76      M_A    0.0000
    539 H         170.3459  160.1787   28.1144 H        76      M_A    0.0000
    540 C         173.4021  161.1533   27.5471 C.3      77      M_A    0.0000
    541 C         174.3937  160.9088   26.4139 C.3      77      M_A    0.0000
    542 O         175.7188  161.2312   26.8335 O.3      77      M_A    0.0000
    543 H         173.7726  160.7119   28.4792 H        77      M_A    0.0000
    544 H         173.3161  162.2301   27.7361 H        77      M_A    0.0000
    545 H         174.3290  159.8827   26.0236 H        77      M_A    0.0000
    546 H         174.1679  161.5729   25.5699 H        77      M_A    0.0000
    547 C         176.6921  160.5756   26.0506 C.3      78      M_A    0.0000
    548 C         176.0964  160.0010   24.7691 C.3      78      M_A    0.0000
    549 O         177.1279  159.4901   23.9260 O.3      78      M_A    0.0000
    550 H         177.1623  159.7813   26.6414 H        78      M_A    0.0000
    551 H         177.4938  161.2810   25.8008 H        78      M_A    0.0000
    552 H         175.3271  159.2429   24.9757 H        78      M_A    0.0000
    553 H         175.5986  160.7960   24.1992 H        78      M_A    0.0000
    554 C         178.1377  158.8399   24.6661 C.3      79      M_A    0.0000
    555 C         178.2453  157.3623   24.3023 C.3      79      M_A    0.0000
    556 O         179.6049  157.0086   24.0529 O.3      79      M_A    0.0000
    557 H         177.9371  158.9546   25.7373 H        79      M_A    0.0000
    558 H         179.0988  159.3356   24.4839 H        79      M_A    0.0000
    559 H         177.7903  156.7153   25.0662 H        79      M_A    0.0000
    560 H         177.7004  157.1663   23.3700 H        79      M_A    0.0000
    561 C         179.7211  155.7032   23.5307 C.3      80      M_A    0.0000
    562 C         178.5008  154.8494   23.8613 C.3      80      M_A    0.0000
    563 O         178.4121  153.7406   22.9676 O.3      80      M_A    0.0000
    564 H         180.6314  155.2333   23.9202 H        80      M_A    0.0000
    565 H         179.8504  155.7565   22.4430 H        80      M_A    0.0000
    566 H         178.4963  154.5261   24.9123 H        80      M_A    0.0000
    567 H         177.5844  155.4356   23.7165 H        80      M_A    0.0000
    568 C         179.6717  153.3912   22.4370 C.3      81      M_A    0.0000
    569 C         179.7995  151.8861   22.2236 C.3      81      M_A    0.0000
    570 O         180.5323  151.6129   21.0302 O.3      81      M_A    0.0000
    571 H         180.4623  153.7495   23.1060 H        81      M_A    0.0000
    572 H         179.8227  153.9130   21.4843 H        81      M_A    0.0000
    573 H         180.2402  151.3820   23.0959 H        81      M_A    0.0000
    574 H         178.8055  151.4429   22.0828 H        81      M_A    0.0000
    575 C         180.9703  150.2728   20.9777 C.3      82      M_A    0.0000
    576 C         179.8584  149.2976   21.3516 C.3      82      M_A    0.0000
    577 O         179.9913  148.0840   20.6132 O.3      82      M_A    0.0000
    578 H         181.8306  150.1430   21.6440 H        82      M_A    0.0000
    579 H         181.3339  150.0481   19.9677 H        82      M_A    0.0000
    580 H         179.8194  149.1124   22.4348 H        82      M_A    0.0000
    581 H         178.8832  149.7197   21.0771 H        82      M_A    0.0000
    582 C         178.8025  147.3245   20.6320 C.3      83      M_A    0.0000
    583 C         178.1963  147.2545   22.0301 C.3      83      M_A    0.0000
    584 O         177.7784  145.9226   22.3255 O.3      83      M_A    0.0000
    585 H         179.0070  146.3161   20.2547 H        83      M_A    0.0000
    586 H         178.0777  147.7657   19.9372 H        83      M_A    0.0000
    587 H         178.8811  147.6453   22.7965 H        83      M_A    0.0000
    588 H         177.2943  147.8779   22.0779 H        83      M_A    0.0000
    589 C         178.4918  144.9682   21.5702 C.3      84      M_A    0.0000
    590 C         179.7894  145.5428   21.0106 C.3      84      M_A    0.0000
    591 O         180.6737  144.4916   20.6246 O.3      84      M_A    0.0000
    592 H         177.8576  144.5974   20.7570 H        84      M_A    0.0000
    593 H         178.7146  144.0985   22.1999 H        84      M_A    0.0000
    594 H         179.6069  146.2448   20.1841 H        84      M_A    0.0000
    595 H         180.3115  146.1139   21.7888 H        84      M_A    0.0000
    596 C         181.9522  144.9796   20.2817 C.3      85      M_A    0.0000
    597 C         181.9118  146.4558   19.8989 C.3      85      M_A    0.0000
    598 O         183.1430  146.8468   19.2928 O.3      85      M_A    0.0000
    599 H         182.3622  144.3838   19.4584 H        85      M_A    0.0000
    600 H         182.6353  144.8364   21.1275 H        85      M_A    0.0000
    601 H         181.0500  146.6922   19.2581 H        85      M_A    0.0000
    602 H         181.8028  147.0727   20.8000 H        85      M_A    0.0000
    603 H         183.1673  146.6238   18.3389 H        85      M_A    0.0000
    604 H         187.2120   31.2042   62.9151 H         0      M_A    0.0000
@<TRIPOS>BOND
     1     1     2      1
     2     1     4      1
     3     1     5      1
     4     1   604      1
     5     2     3      1
     6     2     6      1
     7     2     7      1
     8     3     8      1
     9     8     9      1
    10     8    11      1
    11     8    12      1
    12     9    10      1
    13     9    13      1
    14     9    14      1
    15    10    15      1
    16    15    16      1
    17    15    18      1
    18    15    19      1
    19    16    17      1
    20    16    20      1
    21    16    21      1
    22    17    22      1
    23    22    23      1
    24    22    25      1
    25    22    26      1
    26    23    24      1
    27    23    27      1
    28    23    28      1
    29    24    29      1
    30    29    30      1
    31    29    32      1
    32    29    33      1
    33    30    31      1
    34    30    34      1
    35    30    35      1
    36    31    36      1
    37    36    37      1
    38    36    39      1
    39    36    40      1
    40    37    38      1
    41    37    41      1
    42    37    42      1
    43    38    43      1
    44    43    44      1
    45    43    46      1
    46    43    47      1
    47    44    45      1
    48    44    48      1
    49    44    49      1
    50    45    50      1
    51    50    51      1
    52    50    53      1
    53    50    54      1
    54    51    52      1
    55    51    55      1
    56    51    56      1
    57    52    57      1
    58    57    58      1
    59    57    60      1
    60    57    61      1
    61    58    59      1
    62    58    62      1
    63    58    63      1
    64    59    64      1
    65    64    65      1
    66    64    67      1
    67    64    68      1
    68    65    66      1
    69    65    69      1
    70    65    70      1
    71    66    71      1
    72    71    72      1
    73    71    74      1
    74    71    75      1
    75    72    73      1
    76    72    76      1
    77    72    77      1
    78    73    78      1
    79    78    79      1
    80    78    81      1
    81    78    82      1
    82    79    80      1
    83    79    83      1
    84    79    84      1
    85    80    85      1
    86    85    86      1
    87    85    88      1
    88    85    89      1
    89    86    87      1
    90    86    90      1
    91    86    91      1
    92    87    92      1
    93    92    93      1
    94    92    95      1
    95    92    96      1
    96    93    94      1
    97    93    97      1
    98    93    98      1
    99    94    99      1
   100    99   100      1
   101    99   102      1
   102    99   103      1
   103   100   101      1
   104   100   104      1
   105   100   105      1
   106   101   106      1
   107   106   107      1
   108   106   109      1
   109   106   110      1
   110   107   108      1
   111   107   111      1
   112   107   112      1
   113   108   113      1
   114   113   114      1
   115   113   116      1
   116   113   117      1
   117   114   115      1
   118   114   118      1
   119   114   119      1
   120   115   120      1
   121   120   121      1
   122   120   123      1
   123   120   124      1
   124   121   122      1
   125   121   125      1
   126   121   126      1
   127   122   127      1
   128   127   128      1
   129   127   130      1
   130   127   131      1
   131   128   129      1
   132   128   132      1
   133   128   133      1
   134   129   134      1
   135   134   135      1
   136   134   137      1
   137   134   138      1
   138   135   136      1
   139   135   139      1
   140   135   140      1
   141   136   141      1
   142   141   142      1
   143   141   144      1
   144   141   145      1
   145   142   143      1
   146   142   146      1
   147   142   147      1
   148   143   148      1
   149   148   149      1
   150   148   151      1
   151   148   152      1
   152   149   150      1
   153   149   153      1
   154   149   154      1
   155   150   155      1
   156   155   156      1
   157   155   158      1
   158   155   159      1
   159   156   157      1
   160   156   160      1
   161   156   161      1
   162   157   162      1
   163   162   163      1
   164   162   165      1
   165   162   166      1
   166   163   164      1
   167   163   167      1
   168   163   168      1
   169   164   169      1
   170   169   170      1
   171   169   172      1
   172   169   173      1
   173   170   171      1
   174   170   174      1
   175   170   175      1
   176   171   176      1
   177   176   177      1
   178   176   179      1
   179   176   180      1
   180   177   178      1
   181   177   181      1
   182   177   182      1
   183   178   183      1
   184   183   184      1
   185   183   186      1
   186   183   187      1
   187   184   185      1
   188   184   188      1
   189   184   189      1
   190   185   190      1
   191   190   191      1
   192   190   193      1
   193   190   194      1
   194   191   192      1
   195   191   195      1
   196   191   196      1
   197   192   197      1
   198   197   198      1
   199   197   200      1
   200   197   201      1
   201   198   199      1
   202   198   202      1
   203   198   203      1
   204   199   204      1
   205   204   205      1
   206   204   207      1
   207   204   208      1
   208   205   206      1
   209   205   209      1
   210   205   210      1
   211   206   211      1
   212   211   212      1
   213   211   214      1
   214   211   215      1
   215   212   213      1
   216   212   216      1
   217   212   217      1
   218   213   218      1
   219   218   219      1
   220   218   221      1
   221   218   222      1
   222   219   220      1
   223   219   223      1
   224   219   224      1
   225   220   225      1
   226   225   226      1
   227   225   228      1
   228   225   229      1
   229   226   227      1
   230   226   230      1
   231   226   231      1
   232   227   232      1
   233   232   233      1
   234   232   235      1
   235   232   236      1
   236   233   234      1
   237   233   237      1
   238   233   238      1
   239   234   239      1
   240   239   240      1
   241   239   242      1
   242   239   243      1
   243   240   241      1
   244   240   244      1
   245   240   245      1
   246   241   246      1
   247   246   247      1
   248   246   249      1
   249   246   250      1
   250   247   248      1
   251   247   251      1
   252   247   252      1
   253   248   253      1
   254   253   254      1
   255   253   256      1
   256   253   257      1
   257   254   255      1
   258   254   258      1
   259   254   259      1
   260   255   260      1
   261   260   261      1
   262   260   263      1
   263   260   264      1
   264   261   262      1
   265   261   265      1
   266   261   266      1
   267   262   267      1
   268   267   268      1
   269   267   270      1
   270   267   271      1
   271   268   269      1
   272   268   272      1
   273   268   273      1
   274   269   274      1
   275   274   275      1
   276   274   277      1
   277   274   278      1
   278   275   276      1
   279   275   279      1
   280   275   280      1
   281   276   281      1
   282   281   282      1
   283   281   284      1
   284   281   285      1
   285   282   283      1
   286   282   286      1
   287   282   287      1
   288   283   288      1
   289   288   289      1
   290   288   291      1
   291   288   292      1
   292   289   290      1
   293   289   293      1
   294   289   294      1
   295   290   295      1
   296   295   296      1
   297   295   298      1
   298   295   299      1
   299   296   297      1
   300   296   300      1
   301   296   301      1
   302   297   302      1
   303   302   303      1
   304   302   305      1
   305   302   306      1
   306   303   304      1
   307   303   307      1
   308   303   308      1
   309   304   309      1
   310   309   310      1
   311   309   312      1
   312   309   313      1
   313   310   311      1
   314   310   314      1
   315   310   315      1
   316   311   316      1
   317   316   317      1
   318   316   319      1
   319   316   320      1
   320   317   318      1
   321   317   321      1
   322   317   322      1
   323   318   323      1
   324   323   324      1
   325   323   326      1
   326   323   327      1
   327   324   325      1
   328   324   328      1
   329   324   329      1
   330   325   330      1
   331   330   331      1
   332   330   333      1
   333   330   334      1
   334   331   332      1
   335   331   335      1
   336   331   336      1
   337   332   337      1
   338   337   338      1
   339   337   340      1
   340   337   341      1
   341   338   339      1
   342   338   342      1
   343   338   343      1
   344   339   344      1
   345   344   345      1
   346   344   347      1
   347   344   348      1
   348   345   346      1
   349   345   349      1
   350   345   350      1
   351   346   351      1
   352   351   352      1
   353   351   354      1
   354   351   355      1
   355   352   353      1
   356   352   356      1
   357   352   357      1
   358   353   358      1
   359   358   359      1
   360   358   361      1
   361   358   362      1
   362   359   360      1
   363   359   363      1
   364   359   364      1
   365   360   365      1
   366   365   366      1
   367   365   368      1
   368   365   369      1
   369   366   367      1
   370   366   370      1
   371   366   371      1
   372   367   372      1
   373   372   373      1
   374   372   375      1
   375   372   376      1
   376   373   374      1
   377   373   377      1
   378   373   378      1
   379   374   379      1
   380   379   380      1
   381   379   382      1
   382   379   383      1
   383   380   381      1
   384   380   384      1
   385   380   385      1
   386   381   386      1
   387   386   387      1
   388   386   389      1
   389   386   390      1
   390   387   388      1
   391   387   391      1
   392   387   392      1
   393   388   393      1
   394   393   394      1
   395   393   396      1
   396   393   397      1
   397   394   395      1
   398   394   398      1
   399   394   399      1
   400   395   400      1
   401   400   401      1
   402   400   403      1
   403   400   404      1
   404   401   402      1
   405   401   405      1
   406   401   406      1
   407   402   407      1
   408   407   408      1
   409   407   410      1
   410   407   411      1
   411   408   409      1
   412   408   412      1
   413   408   413      1
   414   409   414      1
   415   414   415      1
   416   414   417      1
   417   414   418      1
   418   415   416      1
   419   415   419      1
   420   415   420      1
   421   416   421      1
   422   421   422      1
   423   421   424      1
   424   421   425      1
   425   422   423      1
   426   422   426      1
   427   422   427      1
   428   423   428      1
   429   428   429      1
   430   428   431      1
   431   428   432      1
   432   429   430      1
   433   429   433      1
   434   429   434      1
   435   430   435      1
   436   435   436      1
   437   435   438      1
   438   435   439      1
   439   436   437      1
   440   436   440      1
   441   436   441      1
   442   437   442      1
   443   442   443      1
   444   442   445      1
   445   442   446      1
   446   443   444      1
   447   443   447      1
   448   443   448      1
   449   444   449      1
   450   449   450      1
   451   449   452      1
   452   449   453      1
   453   450   451      1
   454   450   454      1
   455   450   455      1
   456   451   456      1
   457   456   457      1
   458   456   459      1
   459   456   460      1
   460   457   458      1
   461   457   461      1
   462   457   462      1
   463   458   463      1
   464   463   464      1
   465   463   466      1
   466   463   467      1
   467   464   465      1
   468   464   468      1
   469   464   469      1
   470   465   470      1
   471   470   471      1
   472   470   473      1
   473   470   474      1
   474   471   472      1
   475   471   475      1
   476   471   476      1
   477   472   477      1
   478   477   478      1
   479   477   480      1
   480   477   481      1
   481   478   479      1
   482   478   482      1
   483   478   483      1
   484   479   484      1
   485   484   485      1
   486   484   487      1
   487   484   488      1
   488   485   486      1
   489   485   489      1
   490   485   490      1
   491   486   491      1
   492   491   492      1
   493   491   494      1
   494   491   495      1
   495   492   493      1
   496   492   496      1
   497   492   497      1
   498   493   498      1
   499   498   499      1
   500   498   501      1
   501   498   502      1
   502   499   500      1
   503   499   503      1
   504   499   504      1
   505   500   505      1
   506   505   506      1
   507   505   508      1
   508   505   509      1
   509   506   507      1
   510   506   510      1
   511   506   511      1
   512   507   512      1
   513   512   513      1
   514   512   515      1
   515   512   516      1
   516   513   514      1
   517   513   517      1
   518   513   518      1
   519   514   519      1
   520   519   520      1
   521   519   522      1
   522   519   523      1
   523   520   521      1
   524   520   524      1
   525   520   525      1
   526   521   526      1
   527   526   527      1
   528   526   529      1
   529   526   530      1
   530   527   528      1
   531   527   531      1
   532   527   532      1
   533   528   533      1
   534   533   534      1
   535   533   536      1
   536   533   537      1
   537   534   535      1
   538   534   538      1
   539   534   539      1
   540   535   540      1
   541   540   541      1
   542   540   543      1
   543   540   544      1
   544   541   542      1
   545   541   545      1
   546   541   546      1
   547   542   547      1
   548   547   548      1
   549   547   550      1
   550   547   551      1
   551   548   549      1
   552   548   552      1
   553   548   553      1
   554   549   554      1
   555   554   555      1
   556   554   557      1
   557   554   558      1
   558   555   556      1
   559   555   559      1
   560   555   560      1
   561   556   561      1
   562   561   562      1
   563   561   564      1
   564   561   565      1
   565   562   563      1
   566   562   566      1
   567   562   567      1
   568   563   568      1
   569   568   569      1
   570   568   571      1
   571   568   572      1
   572   569   570      1
   573   569   573      1
   574   569   574      1
   575   570   575      1
   576   575   576      1
   577   575   578      1
   578   575   579      1
   579   576   577      1
   580   576   580      1
   581   576   581      1
   582   577   582      1
   583   582   583      1
   584   582   585      1
   585   582   586      1
   586   583   584      1
   587   583   587      1
   588   583   588      1
   589   584   589      1
   590   589   590      1
   591   589   592      1
   592   589   593      1
   593   590   591      1
   594   590   594      1
   595   590   595      1
   596   591   596      1
   597   596   597      1
   598   596   599      1
   599   596   600      1
   600   597   598      1
   601   597   601      1
   602   597   602      1
   603   598   603      1
