###
### Created by PolyChef-cpp17 on Mon May 12 10:39:12 2025
###

@<TRIPOS>MOLECULE
NO_INFO
450 449 1 0 0
SMALL
USER_CHARGES


@<TRIPOS>ATOM
      1 C          60.6646  133.9299   90.9192 C.3       0      M_A    0.0000
      2 C          61.7854  132.9245   90.6861 C.3       0      M_A    0.0000
      3 O          61.6056  132.3283   89.4023 O.3       0      M_A    0.0000
      4 H          59.8610  133.4454   91.4852 H         0      M_A    0.0000
      5 H          60.2461  134.2571   89.9606 H         0      M_A    0.0000
      6 H          62.7716  133.4041   90.7434 H         0      M_A    0.0000
      7 H          61.7209  132.1557   91.4690 H         0      M_A    0.0000
      8 C          60.2447  132.3500   89.0279 C.3       1      M_A    0.0000
      9 C          59.9530  131.4675   87.8206 C.3       1      M_A    0.0000
     10 O          59.9649  132.2789   86.6471 O.3       1      M_A    0.0000
     11 H          59.6492  132.0007   89.8789 H         1      M_A    0.0000
     12 H          59.9506  133.3848   88.8184 H         1      M_A    0.0000
     13 H          60.6917  130.6602   87.7273 H         1      M_A    0.0000
     14 H          58.9581  131.0212   87.9580 H         1      M_A    0.0000
     15 C          60.0000  131.4771   85.4858 C.3       2      M_A    0.0000
     16 C          61.3290  130.7526   85.3117 C.3       2      M_A    0.0000
     17 O          61.8462  131.0508   84.0158 O.3       2      M_A    0.0000
     18 H          59.1951  130.7367   85.5558 H         2      M_A    0.0000
     19 H          59.7971  132.1078   84.6128 H         2      M_A    0.0000
     20 H          62.0515  131.0511   86.0830 H         2      M_A    0.0000
     21 H          61.1423  129.6733   85.4018 H         2      M_A    0.0000
     22 C          63.0988  130.4289   83.8228 C.3       3      M_A    0.0000
     23 C          64.1721  130.9650   84.7619 C.3       3      M_A    0.0000
     24 O          65.4535  130.6739   84.2058 O.3       3      M_A    0.0000
     25 H          62.9778  129.3534   83.9944 H         3      M_A    0.0000
     26 H          63.4067  130.5670   82.7802 H         3      M_A    0.0000
     27 H          64.0656  132.0473   84.9151 H         3      M_A    0.0000
     28 H          64.0600  130.4588   85.7310 H         3      M_A    0.0000
     29 C          65.3925  130.6514   82.7957 C.3       4      M_A    0.0000
     30 C          66.6667  130.1085   82.1608 C.3       4      M_A    0.0000
     31 O          67.0680  130.9907   81.1137 O.3       4      M_A    0.0000
     32 H          64.5475  130.0200   82.4989 H         4      M_A    0.0000
     33 H          65.1932  131.6662   82.4329 H         4      M_A    0.0000
     34 H          67.4725  130.0114   82.9006 H         4      M_A    0.0000
     35 H          66.4444  129.1141   81.7488 H         4      M_A    0.0000
     36 C          68.2693  130.5470   80.5198 C.3       5      M_A    0.0000
     37 C          69.4497  130.5838   81.4825 C.3       5      M_A    0.0000
     38 O          70.5295  129.8470   80.9109 O.3       5      M_A    0.0000
     39 H          68.1213  129.5176   80.1742 H         5      M_A    0.0000
     40 H          68.4804  131.1661   79.6405 H         5      M_A    0.0000
     41 H          69.7656  131.6152   81.6890 H         5      M_A    0.0000
     42 H          69.1341  130.1160   82.4257 H         5      M_A    0.0000
     43 C          70.0445  128.7913   80.1090 C.3       6      M_A    0.0000
     44 C          70.5702  127.4303   80.5479 C.3       6      M_A    0.0000
     45 O          71.6616  127.0673   79.7035 O.3       6      M_A    0.0000
     46 H          68.9504  128.7891   80.1698 H         6      M_A    0.0000
     47 H          70.3193  128.9831   79.0655 H         6      M_A    0.0000
     48 H          70.8951  127.4461   81.5968 H         6      M_A    0.0000
     49 H          69.7551  126.7006   80.4420 H         6      M_A    0.0000
     50 C          72.7011  126.4794   80.4561 C.3       7      M_A    0.0000
     51 C          72.6824  124.9571   80.3955 C.3       7      M_A    0.0000
     52 O          73.0718  124.4437   81.6686 O.3       7      M_A    0.0000
     53 H          73.6572  126.8416   80.0617 H         7      M_A    0.0000
     54 H          72.6210  126.8165   81.4958 H         7      M_A    0.0000
     55 H          71.6869  124.5796   80.1261 H         7      M_A    0.0000
     56 H          73.4005  124.6384   79.6270 H         7      M_A    0.0000
     57 C          73.4402  125.4925   82.5386 C.3       8      M_A    0.0000
     58 C          74.6155  125.1262   83.4363 C.3       8      M_A    0.0000
     59 O          74.1188  124.8209   84.7386 O.3       8      M_A    0.0000
     60 H          73.7118  126.3630   81.9307 H         8      M_A    0.0000
     61 H          72.5724  125.7698   83.1478 H         8      M_A    0.0000
     62 H          75.1730  124.2690   83.0358 H         8      M_A    0.0000
     63 H          75.2891  125.9933   83.4855 H         8      M_A    0.0000
     64 C          75.0783  125.1348   85.7252 C.3       9      M_A    0.0000
     65 C          76.4829  124.6842   85.3437 C.3       9      M_A    0.0000
     66 O          76.8784  123.6289   86.2188 O.3       9      M_A    0.0000
     67 H          75.0780  126.2209   85.8708 H         9      M_A    0.0000
     68 H          74.7781  124.6721   86.6722 H         9      M_A    0.0000
     69 H          76.5243  124.3433   84.3005 H         9      M_A    0.0000
     70 H          77.1592  125.5425   85.4615 H         9      M_A    0.0000
     71 C          78.2455  123.3226   86.0458 C.3      10      M_A    0.0000
     72 C          78.6150  123.0867   84.5867 C.3      10      M_A    0.0000
     73 O          80.0186  122.8440   84.5036 O.3      10      M_A    0.0000
     74 H          78.8364  124.1600   86.4338 H        10      M_A    0.0000
     75 H          78.4894  122.4377   86.6445 H        10      M_A    0.0000
     76 H          78.0607  122.2371   84.1659 H        10      M_A    0.0000
     77 H          78.3567  123.9921   84.0197 H        10      M_A    0.0000
     78 C          80.5538  123.4074   83.3252 C.3      11      M_A    0.0000
     79 C          82.0690  123.2696   83.2433 C.3      11      M_A    0.0000
     80 O          82.6541  124.5639   83.3789 O.3      11      M_A    0.0000
     81 H          80.1013  122.8996   82.4659 H        11      M_A    0.0000
     82 H          80.2681  124.4642   83.2755 H        11      M_A    0.0000
     83 H          82.4527  122.5996   84.0243 H        11      M_A    0.0000
     84 H          82.3195  122.8459   82.2607 H        11      M_A    0.0000
     85 C          82.6063  124.9953   84.7221 C.3      12      M_A    0.0000
     86 C          83.8193  125.8293   85.1152 C.3      12      M_A    0.0000
     87 O          84.8630  124.9505   85.5326 O.3      12      M_A    0.0000
     88 H          81.6998  125.5960   84.8574 H        12      M_A    0.0000
     89 H          82.5246  124.1181   85.3740 H        12      M_A    0.0000
     90 H          84.1641  126.4528   84.2795 H        12      M_A    0.0000
     91 H          83.5261  126.4851   85.9471 H        12      M_A    0.0000
     92 C          85.4865  124.3505   84.4173 C.3      13      M_A    0.0000
     93 C          86.9683  124.6909   84.3185 C.3      13      M_A    0.0000
     94 O          87.1594  125.5909   83.2279 O.3      13      M_A    0.0000
     95 H          85.3738  123.2640   84.5047 H        13      M_A    0.0000
     96 H          84.9654  124.6669   83.5066 H        13      M_A    0.0000
     97 H          87.3380  125.1430   85.2486 H        13      M_A    0.0000
     98 H          87.5201  123.7580   84.1361 H        13      M_A    0.0000
     99 C          86.5014  126.8160   83.4704 C.3      14      M_A    0.0000
    100 C          87.4588  128.0008   83.5044 C.3      14      M_A    0.0000
    101 O          87.6854  128.3671   84.8646 O.3      14      M_A    0.0000
    102 H          85.7652  126.9735   82.6740 H        14      M_A    0.0000
    103 H          85.9561  126.7445   84.4183 H        14      M_A    0.0000
    104 H          88.4123  127.7589   83.0160 H        14      M_A    0.0000
    105 H          86.9877  128.8344   82.9649 H        14      M_A    0.0000
    106 C          88.5999  127.4815   85.4746 C.3      15      M_A    0.0000
    107 C          88.8741  127.8313   86.9319 C.3      15      M_A    0.0000
    108 O          89.9930  128.7150   86.9876 O.3      15      M_A    0.0000
    109 H          88.1842  126.4689   85.4216 H        15      M_A    0.0000
    110 H          89.5349  127.4876   84.9029 H        15      M_A    0.0000
    111 H          87.9998  128.3011   87.4020 H        15      M_A    0.0000
    112 H          89.1048  126.8998   87.4677 H        15      M_A    0.0000
    113 C          89.6260  130.0123   86.5693 C.3      16      M_A    0.0000
    114 C          90.2371  131.1049   87.4378 C.3      16      M_A    0.0000
    115 O          90.4406  132.2670   86.6353 O.3      16      M_A    0.0000
    116 H          89.9622  130.1472   85.5351 H        16      M_A    0.0000
    117 H          88.5329  130.0917   86.5769 H        16      M_A    0.0000
    118 H          89.5900  131.3460   88.2918 H        16      M_A    0.0000
    119 H          91.2009  130.7381   87.8179 H        16      M_A    0.0000
    120 C          91.5856  132.9740   87.0616 C.3      17      M_A    0.0000
    121 C          91.6941  133.0570   88.5791 C.3      17      M_A    0.0000
    122 O          92.8042  133.8886   88.9137 O.3      17      M_A    0.0000
    123 H          92.4710  132.4629   86.6669 H        17      M_A    0.0000
    124 H          91.5623  133.9809   86.6296 H        17      M_A    0.0000
    125 H          90.7746  133.4598   89.0246 H        17      M_A    0.0000
    126 H          91.8571  132.0408   88.9646 H        17      M_A    0.0000
    127 C          94.0208  133.2566   88.5772 C.3      18      M_A    0.0000
    128 C          95.2263  133.9107   89.2409 C.3      18      M_A    0.0000
    129 O          96.0035  134.5625   88.2374 O.3      18      M_A    0.0000
    130 H          93.9624  132.2092   88.8939 H        18      M_A    0.0000
    131 H          94.1376  133.2687   87.4875 H        18      M_A    0.0000
    132 H          94.9175  134.6346   90.0069 H        18      M_A    0.0000
    133 H          95.8204  133.1207   89.7213 H        18      M_A    0.0000
    134 C          97.3219  134.7824   88.6914 C.3      19      M_A    0.0000
    135 C          97.6823  136.2613   88.7564 C.3      19      M_A    0.0000
    136 O          98.8552  136.4813   87.9743 O.3      19      M_A    0.0000
    137 H          97.4173  134.3463   89.6922 H        19      M_A    0.0000
    138 H          98.0178  134.2534   88.0303 H        19      M_A    0.0000
    139 H          96.8607  136.8900   88.3877 H        19      M_A    0.0000
    140 H          97.8785  136.5177   89.8070 H        19      M_A    0.0000
    141 C          98.6744  137.5746   87.0998 C.3      20      M_A    0.0000
    142 C          99.8401  137.7549   86.1353 C.3      20      M_A    0.0000
    143 O          99.7522  139.0527   85.5490 O.3      20      M_A    0.0000
    144 H          97.7569  137.4058   86.5248 H        20      M_A    0.0000
    145 H          98.5322  138.4845   87.6938 H        20      M_A    0.0000
    146 H         100.8047  137.6378   86.6471 H        20      M_A    0.0000
    147 H          99.7587  136.9847   85.3555 H        20      M_A    0.0000
    148 C         101.0201  139.4877   85.1065 C.3      21      M_A    0.0000
    149 C         101.1160  139.5715   83.5882 C.3      21      M_A    0.0000
    150 O         102.4206  139.1544   83.1885 O.3      21      M_A    0.0000
    151 H         101.2105  140.4793   85.5325 H        21      M_A    0.0000
    152 H         101.7849  138.8060   85.4956 H        21      M_A    0.0000
    153 H         100.3556  138.9444   83.1040 H        21      M_A    0.0000
    154 H         100.9502  140.6175   83.2941 H        21      M_A    0.0000
    155 C         103.3861  140.1183   83.5509 C.3      22      M_A    0.0000
    156 C         104.6578  140.0189   82.7176 C.3      22      M_A    0.0000
    157 O         105.5119  139.0365   83.3017 O.3      22      M_A    0.0000
    158 H         102.9459  141.1126   83.4150 H        22      M_A    0.0000
    159 H         103.6223  140.0015   84.6147 H        22      M_A    0.0000
    160 H         104.4339  139.7515   81.6762 H        22      M_A    0.0000
    161 H         105.1511  141.0009   82.7314 H        22      M_A    0.0000
    162 C         106.3173  138.4256   82.3164 C.3      23      M_A    0.0000
    163 C         105.5214  137.5193   81.3855 C.3      23      M_A    0.0000
    164 O         106.4348  136.7608   80.5942 O.3      23      M_A    0.0000
    165 H         106.7945  139.2155   81.7253 H        23      M_A    0.0000
    166 H         107.1112  137.8544   82.8109 H        23      M_A    0.0000
    167 H         104.8629  136.8454   81.9497 H        23      M_A    0.0000
    168 H         104.9030  138.1561   80.7375 H        23      M_A    0.0000
    169 C         106.3354  137.1216   79.2331 C.3      24      M_A    0.0000
    170 C         106.9936  136.1071   78.3063 C.3      24      M_A    0.0000
    171 O         108.0653  136.7470   77.6149 O.3      24      M_A    0.0000
    172 H         105.2731  137.2040   78.9768 H        24      M_A    0.0000
    173 H         106.7889  138.1095   79.0938 H        24      M_A    0.0000
    174 H         107.3708  135.2403   78.8653 H        24      M_A    0.0000
    175 H         106.2370  135.7616   77.5879 H        24      M_A    0.0000
    176 C         108.8581  135.7976   76.9348 C.3      25      M_A    0.0000
    177 C         109.3884  136.3190   75.6050 C.3      25      M_A    0.0000
    178 O         109.6694  135.2067   74.7566 O.3      25      M_A    0.0000
    179 H         109.7045  135.5331   77.5787 H        25      M_A    0.0000
    180 H         108.2655  134.8897   76.7745 H        25      M_A    0.0000
    181 H         108.6650  136.9884   75.1205 H        25      M_A    0.0000
    182 H         110.3114  136.8816   75.8039 H        25      M_A    0.0000
    183 C         110.7955  135.4684   73.9466 C.3      26      M_A    0.0000
    184 C         110.4703  135.4333   72.4585 C.3      26      M_A    0.0000
    185 O         111.3040  134.4604   71.8307 O.3      26      M_A    0.0000
    186 H         111.1810  136.4610   74.2055 H        26      M_A    0.0000
    187 H         111.5776  134.7366   74.1790 H        26      M_A    0.0000
    188 H         109.4132  135.1908   72.2856 H        26      M_A    0.0000
    189 H         110.6766  136.4291   72.0417 H        26      M_A    0.0000
    190 C         111.2154  134.5589   70.4254 C.3      27      M_A    0.0000
    191 C         112.0657  133.5177   69.7082 C.3      27      M_A    0.0000
    192 O         112.6449  134.1184   68.5508 O.3      27      M_A    0.0000
    193 H         110.1666  134.4245   70.1376 H        27      M_A    0.0000
    194 H         111.5174  135.5674   70.1205 H        27      M_A    0.0000
    195 H         112.8549  133.1254   70.3635 H        27      M_A    0.0000
    196 H         111.4088  132.6881   69.4113 H        27      M_A    0.0000
    197 C         111.6615  134.3562   67.5665 C.3      28      M_A    0.0000
    198 C         112.0669  133.8363   66.1929 C.3      28      M_A    0.0000
    199 O         112.3544  134.9501   65.3487 O.3      28      M_A    0.0000
    200 H         110.7363  133.8588   67.8787 H        28      M_A    0.0000
    201 H         111.4607  135.4325   67.5181 H        28      M_A    0.0000
    202 H         112.9428  133.1769   66.2570 H        28      M_A    0.0000
    203 H         111.2232  133.2633   65.7834 H        28      M_A    0.0000
    204 C         111.1701  135.6410   65.0129 C.3      29      M_A    0.0000
    205 C         110.8872  135.6296   63.5158 C.3      29      M_A    0.0000
    206 O         111.5563  136.7375   62.9152 O.3      29      M_A    0.0000
    207 H         110.3346  135.1653   65.5387 H        29      M_A    0.0000
    208 H         111.2465  136.6728   65.3743 H        29      M_A    0.0000
    209 H         111.2219  134.6918   63.0525 H        29      M_A    0.0000
    210 H         109.8016  135.7254   63.3741 H        29      M_A    0.0000
    211 C         111.8765  136.4577   61.5692 C.3      30      M_A    0.0000
    212 C         112.9815  135.4178   61.4318 C.3      30      M_A    0.0000
    213 O         113.1340  135.0918   60.0511 O.3      30      M_A    0.0000
    214 H         110.9730  136.0878   61.0714 H        30      M_A    0.0000
    215 H         112.1718  137.3894   61.0735 H        30      M_A    0.0000
    216 H         113.9322  135.7880   61.8382 H        30      M_A    0.0000
    217 H         112.6802  134.5246   61.9970 H        30      M_A    0.0000
    218 C         112.3017  134.0074   59.6991 C.3      31      M_A    0.0000
    219 C         111.9491  133.9938   58.2169 C.3      31      M_A    0.0000
    220 O         110.7888  133.1847   58.0300 O.3      31      M_A    0.0000
    221 H         112.8245  133.0778   59.9512 H        31      M_A    0.0000
    222 H         111.3886  134.0500   60.3036 H        31      M_A    0.0000
    223 H         111.7647  135.0088   57.8401 H        31      M_A    0.0000
    224 H         112.7990  133.5631   57.6690 H        31      M_A    0.0000
    225 C         111.0743  131.8305   58.3080 C.3      32      M_A    0.0000
    226 C         110.9308  130.9360   57.0829 C.3      32      M_A    0.0000
    227 O         110.2946  129.7208   57.4757 O.3      32      M_A    0.0000
    228 H         112.1032  131.7661   58.6796 H        32      M_A    0.0000
    229 H         110.4094  131.4844   59.1075 H        32      M_A    0.0000
    230 H         110.3468  131.4285   56.2940 H        32      M_A    0.0000
    231 H         111.9377  130.7243   56.6965 H        32      M_A    0.0000
    232 C         110.7019  128.6533   56.6467 C.3      33      M_A    0.0000
    233 C         109.5293  127.8262   56.1345 C.3      33      M_A    0.0000
    234 O         110.0251  126.5767   55.6562 O.3      33      M_A    0.0000
    235 H         111.2458  129.0710   55.7919 H        33      M_A    0.0000
    236 H         111.3976  128.0162   57.2046 H        33      M_A    0.0000
    237 H         108.7835  127.6581   56.9229 H        33      M_A    0.0000
    238 H         109.0551  128.3809   55.3127 H        33      M_A    0.0000
    239 C         109.0514  125.9198   54.8732 C.3      34      M_A    0.0000
    240 C         109.3495  124.4374   54.6862 C.3      34      M_A    0.0000
    241 O         109.4454  124.1626   53.2893 O.3      34      M_A    0.0000
    242 H         108.0806  126.0299   55.3696 H        34      M_A    0.0000
    243 H         108.9851  126.4170   53.8987 H        34      M_A    0.0000
    244 H         110.2814  124.1498   55.1911 H        34      M_A    0.0000
    245 H         108.5196  123.8656   55.1248 H        34      M_A    0.0000
    246 C         109.3825  122.7732   53.0483 C.3      35      M_A    0.0000
    247 C         110.3900  122.3118   52.0026 C.3      35      M_A    0.0000
    248 O         109.6920  122.0168   50.7936 O.3      35      M_A    0.0000
    249 H         109.5816  122.2520   53.9915 H        35      M_A    0.0000
    250 H         108.3657  122.5134   52.7327 H        35      M_A    0.0000
    251 H         111.1547  123.0781   51.8181 H        35      M_A    0.0000
    252 H         110.8829  121.4055   52.3817 H        35      M_A    0.0000
    253 C         110.5979  121.8244   49.7282 C.3      36      M_A    0.0000
    254 C         110.4989  122.9145   48.6683 C.3      36      M_A    0.0000
    255 O         110.6273  122.3135   47.3805 O.3      36      M_A    0.0000
    256 H         111.6138  121.8158   50.1390 H        36      M_A    0.0000
    257 H         110.4127  120.8426   49.2778 H        36      M_A    0.0000
    258 H         109.5454  123.4549   48.7379 H        36      M_A    0.0000
    259 H         111.3204  123.6256   48.8339 H        36      M_A    0.0000
    260 C         111.5660  123.0150   46.5935 C.3      37      M_A    0.0000
    261 C         111.6448  122.4902   45.1653 C.3      37      M_A    0.0000
    262 O         113.0060  122.1868   44.8637 O.3      37      M_A    0.0000
    263 H         111.2740  124.0710   46.5712 H        37      M_A    0.0000
    264 H         112.5493  122.9517   47.0733 H        37      M_A    0.0000
    265 H         111.0216  121.5957   45.0327 H        37      M_A    0.0000
    266 H         111.2783  123.2784   44.4926 H        37      M_A    0.0000
    267 C         113.4833  121.1520   45.6968 C.3      38      M_A    0.0000
    268 C         114.8531  120.6388   45.2707 C.3      38      M_A    0.0000
    269 O         114.6831  119.7255   44.1878 O.3      38      M_A    0.0000
    270 H         113.5482  121.5380   46.7204 H        38      M_A    0.0000
    271 H         112.7564  120.3318   45.6960 H        38      M_A    0.0000
    272 H         115.5127  121.4630   44.9677 H        38      M_A    0.0000
    273 H         115.3052  120.1226   46.1293 H        38      M_A    0.0000
    274 C         115.4289  120.1397   43.0632 C.3      39      M_A    0.0000
    275 C         116.6939  119.3151   42.8605 C.3      39      M_A    0.0000
    276 O         117.7886  120.2031   42.6396 O.3      39      M_A    0.0000
    277 H         114.7932  120.0441   42.1757 H        39      M_A    0.0000
    278 H         115.6839  121.1995   43.1772 H        39      M_A    0.0000
    279 H         116.8979  118.6751   43.7294 H        39      M_A    0.0000
    280 H         116.5456  118.6759   41.9787 H        39      M_A    0.0000
    281 C         117.7264  121.3020   43.5235 C.3      40      M_A    0.0000
    282 C         118.9081  122.2508   43.3660 C.3      40      M_A    0.0000
    283 O         119.9583  121.8212   44.2310 O.3      40      M_A    0.0000
    284 H         116.7984  121.8500   43.3247 H        40      M_A    0.0000
    285 H         117.6779  120.9277   44.5524 H        40      M_A    0.0000
    286 H         119.2636  122.2781   42.3273 H        40      M_A    0.0000
    287 H         118.5755  123.2587   43.6516 H        40      M_A    0.0000
    288 C         120.7783  120.8698   43.5867 C.3      41      M_A    0.0000
    289 C         122.2152  121.3483   43.4209 C.3      41      M_A    0.0000
    290 O         122.6036  121.1674   42.0599 O.3      41      M_A    0.0000
    291 H         120.7735  119.9516   44.1849 H        41      M_A    0.0000
    292 H         120.3448  120.6320   42.6086 H        41      M_A    0.0000
    293 H         122.3208  122.4039   43.7051 H        41      M_A    0.0000
    294 H         122.8540  120.7407   44.0772 H        41      M_A    0.0000
    295 C         121.9998  120.0124   41.5177 C.3      42      M_A    0.0000
    296 C         122.3940  119.7693   40.0661 C.3      42      M_A    0.0000
    297 O         121.5419  120.5449   39.2246 O.3      42      M_A    0.0000
    298 H         122.3056  119.1501   42.1208 H        42      M_A    0.0000
    299 H         120.9113  120.1082   41.6018 H        42      M_A    0.0000
    300 H         123.4441  120.0361   39.8866 H        42      M_A    0.0000
    301 H         122.2601  118.6997   39.8519 H        42      M_A    0.0000
    302 C         121.9085  121.9075   39.2624 C.3      43      M_A    0.0000
    303 C         122.0041  122.5294   37.8748 C.3      43      M_A    0.0000
    304 O         123.2681  123.1795   37.7508 O.3      43      M_A    0.0000
    305 H         121.1558  122.4492   39.8464 H        43      M_A    0.0000
    306 H         122.8670  122.0028   39.7852 H        43      M_A    0.0000
    307 H         121.8920  121.7715   37.0880 H        43      M_A    0.0000
    308 H         121.1929  123.2643   37.7748 H        43      M_A    0.0000
    309 C         123.5387  123.4919   36.4010 C.3      44      M_A    0.0000
    310 C         123.8054  122.2544   35.5533 C.3      44      M_A    0.0000
    311 O         123.7685  122.6264   34.1763 O.3      44      M_A    0.0000
    312 H         122.6734  124.0260   35.9925 H        44      M_A    0.0000
    313 H         124.3985  124.1702   36.3592 H        44      M_A    0.0000
    314 H         124.7778  121.8052   35.7957 H        44      M_A    0.0000
    315 H         123.0152  121.5204   35.7648 H        44      M_A    0.0000
    316 C         124.2499  121.5781   33.3627 C.3      45      M_A    0.0000
    317 C         124.0361  121.8411   31.8773 C.3      45      M_A    0.0000
    318 O         122.7502  121.3469   31.5055 O.3      45      M_A    0.0000
    319 H         125.3223  121.4598   33.5545 H        45      M_A    0.0000
    320 H         123.7546  120.6454   33.6556 H        45      M_A    0.0000
    321 H         124.1087  122.9123   31.6460 H        45      M_A    0.0000
    322 H         124.8187  121.3062   31.3210 H        45      M_A    0.0000
    323 C         122.3442  121.8921   30.2683 C.3      46      M_A    0.0000
    324 C         122.0149  123.3769   30.3599 C.3      46      M_A    0.0000
    325 O         120.9312  123.6606   29.4763 O.3      46      M_A    0.0000
    326 H         123.1571  121.7495   29.5474 H        46      M_A    0.0000
    327 H         121.4741  121.3347   29.9033 H        46      M_A    0.0000
    328 H         121.7494  123.6654   31.3858 H        46      M_A    0.0000
    329 H         122.9063  123.9425   30.0539 H        46      M_A    0.0000
    330 C         120.4571  124.9755   29.6735 C.3      47      M_A    0.0000
    331 C         119.1986  125.2737   28.8682 C.3      47      M_A    0.0000
    332 O         119.5245  126.2059   27.8383 O.3      47      M_A    0.0000
    333 H         120.2390  125.1052   30.7396 H        47      M_A    0.0000
    334 H         121.2511  125.6826   29.4079 H        47      M_A    0.0000
    335 H         118.7787  124.3590   28.4286 H        47      M_A    0.0000
    336 H         118.4550  125.7115   29.5488 H        47      M_A    0.0000
    337 C         118.6312  126.0828   26.7523 C.3      48      M_A    0.0000
    338 C         118.4286  127.3956   26.0060 C.3      48      M_A    0.0000
    339 O         117.4230  127.2062   25.0116 O.3      48      M_A    0.0000
    340 H         119.0345  125.3357   26.0594 H        48      M_A    0.0000
    341 H         117.6706  125.7079   27.1235 H        48      M_A    0.0000
    342 H         118.1344  128.2032   26.6896 H        48      M_A    0.0000
    343 H         119.3812  127.6663   25.5293 H        48      M_A    0.0000
    344 C         117.0996  125.8382   24.8827 C.3      49      M_A    0.0000
    345 C         116.8421  125.4285   23.4380 C.3      49      M_A    0.0000
    346 O         115.4482  125.1697   23.2772 O.3      49      M_A    0.0000
    347 H         117.9350  125.2494   25.2783 H        49      M_A    0.0000
    348 H         116.2192  125.6221   25.4985 H        49      M_A    0.0000
    349 H         117.1629  126.2108   22.7370 H        49      M_A    0.0000
    350 H         117.4190  124.5152   23.2354 H        49      M_A    0.0000
    351 C         115.2105  124.4286   22.0995 C.3      50      M_A    0.0000
    352 C         114.8780  125.3139   20.9049 C.3      50      M_A    0.0000
    353 O         113.4613  125.3445   20.7383 O.3      50      M_A    0.0000
    354 H         116.1105  123.8457   21.8735 H        50      M_A    0.0000
    355 H         114.3936  123.7216   22.2839 H        50      M_A    0.0000
    356 H         115.2627  126.3333   21.0428 H        50      M_A    0.0000
    357 H         115.3510  124.8758   20.0147 H        50      M_A    0.0000
    358 C         113.0593  126.5371   20.0988 C.3      51      M_A    0.0000
    359 C         111.6904  127.0199   20.5618 C.3      51      M_A    0.0000
    360 O         110.8433  127.1554   19.4218 O.3      51      M_A    0.0000
    361 H         113.8042  127.3108   20.3163 H        51      M_A    0.0000
    362 H         113.0551  126.3745   19.0149 H        51      M_A    0.0000
    363 H         111.2428  126.3224   21.2825 H        51      M_A    0.0000
    364 H         111.8212  127.9958   21.0501 H        51      M_A    0.0000
    365 C         109.8872  128.1732   19.6282 C.3      52      M_A    0.0000
    366 C         108.4877  127.6239   19.8756 C.3      52      M_A    0.0000
    367 O         107.6901  127.8651   18.7174 O.3      52      M_A    0.0000
    368 H         110.1982  128.7649   20.4966 H        52      M_A    0.0000
    369 H         109.8827  128.8380   18.7569 H        52      M_A    0.0000
    370 H         108.5134  126.5486   20.0975 H        52      M_A    0.0000
    371 H         108.0628  128.1525   20.7404 H        52      M_A    0.0000
    372 C         106.3204  127.9127   19.0554 C.3      53      M_A    0.0000
    373 C         105.6809  126.5310   19.1133 C.3      53      M_A    0.0000
    374 O         104.7602  126.4072   18.0303 O.3      53      M_A    0.0000
    375 H         106.2256  128.3924   20.0361 H        53      M_A    0.0000
    376 H         105.7964  128.5405   18.3258 H        53      M_A    0.0000
    377 H         106.4375  125.7371   19.0565 H        53      M_A    0.0000
    378 H         105.1480  126.4427   20.0705 H        53      M_A    0.0000
    379 C         103.6382  125.6411   18.4138 C.3      54      M_A    0.0000
    380 C         103.9129  124.1427   18.3880 C.3      54      M_A    0.0000
    381 O         103.1193  123.5497   17.3612 O.3      54      M_A    0.0000
    382 H         103.3532  125.9353   19.4302 H        54      M_A    0.0000
    383 H         102.8001  125.8824   17.7501 H        54      M_A    0.0000
    384 H         104.9762  123.9338   18.2096 H        54      M_A    0.0000
    385 H         103.6312  123.7284   19.3662 H        54      M_A    0.0000
    386 C         103.0751  122.1468   17.5116 C.3      55      M_A    0.0000
    387 C         103.0912  121.4116   16.1772 C.3      55      M_A    0.0000
    388 O         102.2055  120.2960   16.2587 O.3      55      M_A    0.0000
    389 H         103.9454  121.8375   18.1013 H        55      M_A    0.0000
    390 H         102.1765  121.8788   18.0789 H        55      M_A    0.0000
    391 H         102.7898  122.0718   15.3529 H        55      M_A    0.0000
    392 H         104.1172  121.0634   15.9931 H        55      M_A    0.0000
    393 C         101.9960  119.7304   14.9824 C.3      56      M_A    0.0000
    394 C         101.0750  118.5173   15.0209 C.3      56      M_A    0.0000
    395 O         101.8678  117.3369   14.9031 O.3      56      M_A    0.0000
    396 H         101.5523  120.4964   14.3364 H        56      M_A    0.0000
    397 H         102.9658  119.4541   14.5532 H        56      M_A    0.0000
    398 H         100.4914  118.4873   15.9508 H        56      M_A    0.0000
    399 H         100.3814  118.5897   14.1714 H        56      M_A    0.0000
    400 C         101.4501  116.3599   15.8325 C.3      57      M_A    0.0000
    401 C         102.2822  115.0857   15.7599 C.3      57      M_A    0.0000
    402 O         101.4301  114.0033   15.3881 O.3      57      M_A    0.0000
    403 H         101.5343  116.7856   16.8388 H        57      M_A    0.0000
    404 H         100.3931  116.1307   15.6555 H        57      M_A    0.0000
    405 H         103.1027  115.1842   15.0366 H        57      M_A    0.0000
    406 H         102.7098  114.9015   16.7555 H        57      M_A    0.0000
    407 C         102.0411  112.7643   15.6782 C.3      58      M_A    0.0000
    408 C         101.9314  111.7711   14.5281 C.3      58      M_A    0.0000
    409 O         100.9980  110.7541   14.8891 O.3      58      M_A    0.0000
    410 H         103.0999  112.9463   15.8944 H        58      M_A    0.0000
    411 H         101.5840  112.3463   16.5823 H        58      M_A    0.0000
    412 H         101.6096  112.2655   13.6017 H        58      M_A    0.0000
    413 H         102.9241  111.3284   14.3651 H        58      M_A    0.0000
    414 C         101.3103  109.5379   14.2441 C.3      59      M_A    0.0000
    415 C         100.0708  108.7843   13.7784 C.3      59      M_A    0.0000
    416 O         100.3786  107.3926   13.7141 O.3      59      M_A    0.0000
    417 H         101.9403  109.7620   13.3759 H        59      M_A    0.0000
    418 H         101.8963  108.9137   14.9282 H        59      M_A    0.0000
    419 H          99.2228  108.9512   14.4560 H        59      M_A    0.0000
    420 H          99.8023  109.1556   12.7793 H        59      M_A    0.0000
    421 C          99.2055  106.6297   13.5286 C.3      60      M_A    0.0000
    422 C          99.3148  105.2298   14.1200 C.3      60      M_A    0.0000
    423 O          99.8923  104.3643   13.1437 O.3      60      M_A    0.0000
    424 H          98.3737  107.1572   14.0089 H        60      M_A    0.0000
    425 H          98.9869  106.5700   12.4563 H        60      M_A    0.0000
    426 H          99.9254  105.2277   15.0329 H        60      M_A    0.0000
    427 H          98.3015  104.8872   14.3726 H        60      M_A    0.0000
    428 C         101.2612  104.1499   13.4136 C.3      61      M_A    0.0000
    429 C         101.6321  102.6722   13.4327 C.3      61      M_A    0.0000
    430 O         102.5725  102.4501   14.4825 O.3      61      M_A    0.0000
    431 H         101.8471  104.6560   12.6381 H        61      M_A    0.0000
    432 H         101.5103  104.6137   14.3747 H        61      M_A    0.0000
    433 H         100.7468  102.0393   13.5804 H        61      M_A    0.0000
    434 H         102.0863  102.4230   12.4634 H        61      M_A    0.0000
    435 C         103.2256  101.2101   14.3138 C.3      62      M_A    0.0000
    436 C         102.2670  100.0871   13.9380 C.3      62      M_A    0.0000
    437 O         102.3052   99.0917   14.9595 O.3      62      M_A    0.0000
    438 H         103.9744  101.3217   13.5215 H        62      M_A    0.0000
    439 H         103.7557  100.9593   15.2397 H        62      M_A    0.0000
    440 H         101.2416  100.4606   13.8149 H        62      M_A    0.0000
    441 H         102.6031   99.6581   12.9835 H        62      M_A    0.0000
    442 C         101.7085   97.8933   14.5117 C.3      63      M_A    0.0000
    443 C         100.3254   98.1137   13.9118 C.3      63      M_A    0.0000
    444 O          99.6323   96.8668   13.8896 O.3      63      M_A    0.0000
    445 H         102.3612   97.4480   13.7523 H        63      M_A    0.0000
    446 H         101.6479   97.1916   15.3513 H        63      M_A    0.0000
    447 H          99.7524   98.8525   14.4879 H        63      M_A    0.0000
    448 H         100.4550   98.4890   12.8869 H        63      M_A    0.0000
    449 H          98.8293   96.9263   13.3309 H        63      M_A    0.0000
    450 H          60.9949  134.8059   91.4776 H         0      M_A    0.0000
@<TRIPOS>BOND
     1     1     2      1
     2     1     4      1
     3     1     5      1
     4     1   450      1
     5     2     3      1
     6     2     6      1
     7     2     7      1
     8     3     8      1
     9     8     9      1
    10     8    11      1
    11     8    12      1
    12     9    10      1
    13     9    13      1
    14     9    14      1
    15    10    15      1
    16    15    16      1
    17    15    18      1
    18    15    19      1
    19    16    17      1
    20    16    20      1
    21    16    21      1
    22    17    22      1
    23    22    23      1
    24    22    25      1
    25    22    26      1
    26    23    24      1
    27    23    27      1
    28    23    28      1
    29    24    29      1
    30    29    30      1
    31    29    32      1
    32    29    33      1
    33    30    31      1
    34    30    34      1
    35    30    35      1
    36    31    36      1
    37    36    37      1
    38    36    39      1
    39    36    40      1
    40    37    38      1
    41    37    41      1
    42    37    42      1
    43    38    43      1
    44    43    44      1
    45    43    46      1
    46    43    47      1
    47    44    45      1
    48    44    48      1
    49    44    49      1
    50    45    50      1
    51    50    51      1
    52    50    53      1
    53    50    54      1
    54    51    52      1
    55    51    55      1
    56    51    56      1
    57    52    57      1
    58    57    58      1
    59    57    60      1
    60    57    61      1
    61    58    59      1
    62    58    62      1
    63    58    63      1
    64    59    64      1
    65    64    65      1
    66    64    67      1
    67    64    68      1
    68    65    66      1
    69    65    69      1
    70    65    70      1
    71    66    71      1
    72    71    72      1
    73    71    74      1
    74    71    75      1
    75    72    73      1
    76    72    76      1
    77    72    77      1
    78    73    78      1
    79    78    79      1
    80    78    81      1
    81    78    82      1
    82    79    80      1
    83    79    83      1
    84    79    84      1
    85    80    85      1
    86    85    86      1
    87    85    88      1
    88    85    89      1
    89    86    87      1
    90    86    90      1
    91    86    91      1
    92    87    92      1
    93    92    93      1
    94    92    95      1
    95    92    96      1
    96    93    94      1
    97    93    97      1
    98    93    98      1
    99    94    99      1
   100    99   100      1
   101    99   102      1
   102    99   103      1
   103   100   101      1
   104   100   104      1
   105   100   105      1
   106   101   106      1
   107   106   107      1
   108   106   109      1
   109   106   110      1
   110   107   108      1
   111   107   111      1
   112   107   112      1
   113   108   113      1
   114   113   114      1
   115   113   116      1
   116   113   117      1
   117   114   115      1
   118   114   118      1
   119   114   119      1
   120   115   120      1
   121   120   121      1
   122   120   123      1
   123   120   124      1
   124   121   122      1
   125   121   125      1
   126   121   126      1
   127   122   127      1
   128   127   128      1
   129   127   130      1
   130   127   131      1
   131   128   129      1
   132   128   132      1
   133   128   133      1
   134   129   134      1
   135   134   135      1
   136   134   137      1
   137   134   138      1
   138   135   136      1
   139   135   139      1
   140   135   140      1
   141   136   141      1
   142   141   142      1
   143   141   144      1
   144   141   145      1
   145   142   143      1
   146   142   146      1
   147   142   147      1
   148   143   148      1
   149   148   149      1
   150   148   151      1
   151   148   152      1
   152   149   150      1
   153   149   153      1
   154   149   154      1
   155   150   155      1
   156   155   156      1
   157   155   158      1
   158   155   159      1
   159   156   157      1
   160   156   160      1
   161   156   161      1
   162   157   162      1
   163   162   163      1
   164   162   165      1
   165   162   166      1
   166   163   164      1
   167   163   167      1
   168   163   168      1
   169   164   169      1
   170   169   170      1
   171   169   172      1
   172   169   173      1
   173   170   171      1
   174   170   174      1
   175   170   175      1
   176   171   176      1
   177   176   177      1
   178   176   179      1
   179   176   180      1
   180   177   178      1
   181   177   181      1
   182   177   182      1
   183   178   183      1
   184   183   184      1
   185   183   186      1
   186   183   187      1
   187   184   185      1
   188   184   188      1
   189   184   189      1
   190   185   190      1
   191   190   191      1
   192   190   193      1
   193   190   194      1
   194   191   192      1
   195   191   195      1
   196   191   196      1
   197   192   197      1
   198   197   198      1
   199   197   200      1
   200   197   201      1
   201   198   199      1
   202   198   202      1
   203   198   203      1
   204   199   204      1
   205   204   205      1
   206   204   207      1
   207   204   208      1
   208   205   206      1
   209   205   209      1
   210   205   210      1
   211   206   211      1
   212   211   212      1
   213   211   214      1
   214   211   215      1
   215   212   213      1
   216   212   216      1
   217   212   217      1
   218   213   218      1
   219   218   219      1
   220   218   221      1
   221   218   222      1
   222   219   220      1
   223   219   223      1
   224   219   224      1
   225   220   225      1
   226   225   226      1
   227   225   228      1
   228   225   229      1
   229   226   227      1
   230   226   230      1
   231   226   231      1
   232   227   232      1
   233   232   233      1
   234   232   235      1
   235   232   236      1
   236   233   234      1
   237   233   237      1
   238   233   238      1
   239   234   239      1
   240   239   240      1
   241   239   242      1
   242   239   243      1
   243   240   241      1
   244   240   244      1
   245   240   245      1
   246   241   246      1
   247   246   247      1
   248   246   249      1
   249   246   250      1
   250   247   248      1
   251   247   251      1
   252   247   252      1
   253   248   253      1
   254   253   254      1
   255   253   256      1
   256   253   257      1
   257   254   255      1
   258   254   258      1
   259   254   259      1
   260   255   260      1
   261   260   261      1
   262   260   263      1
   263   260   264      1
   264   261   262      1
   265   261   265      1
   266   261   266      1
   267   262   267      1
   268   267   268      1
   269   267   270      1
   270   267   271      1
   271   268   269      1
   272   268   272      1
   273   268   273      1
   274   269   274      1
   275   274   275      1
   276   274   277      1
   277   274   278      1
   278   275   276      1
   279   275   279      1
   280   275   280      1
   281   276   281      1
   282   281   282      1
   283   281   284      1
   284   281   285      1
   285   282   283      1
   286   282   286      1
   287   282   287      1
   288   283   288      1
   289   288   289      1
   290   288   291      1
   291   288   292      1
   292   289   290      1
   293   289   293      1
   294   289   294      1
   295   290   295      1
   296   295   296      1
   297   295   298      1
   298   295   299      1
   299   296   297      1
   300   296   300      1
   301   296   301      1
   302   297   302      1
   303   302   303      1
   304   302   305      1
   305   302   306      1
   306   303   304      1
   307   303   307      1
   308   303   308      1
   309   304   309      1
   310   309   310      1
   311   309   312      1
   312   309   313      1
   313   310   311      1
   314   310   314      1
   315   310   315      1
   316   311   316      1
   317   316   317      1
   318   316   319      1
   319   316   320      1
   320   317   318      1
   321   317   321      1
   322   317   322      1
   323   318   323      1
   324   323   324      1
   325   323   326      1
   326   323   327      1
   327   324   325      1
   328   324   328      1
   329   324   329      1
   330   325   330      1
   331   330   331      1
   332   330   333      1
   333   330   334      1
   334   331   332      1
   335   331   335      1
   336   331   336      1
   337   332   337      1
   338   337   338      1
   339   337   340      1
   340   337   341      1
   341   338   339      1
   342   338   342      1
   343   338   343      1
   344   339   344      1
   345   344   345      1
   346   344   347      1
   347   344   348      1
   348   345   346      1
   349   345   349      1
   350   345   350      1
   351   346   351      1
   352   351   352      1
   353   351   354      1
   354   351   355      1
   355   352   353      1
   356   352   356      1
   357   352   357      1
   358   353   358      1
   359   358   359      1
   360   358   361      1
   361   358   362      1
   362   359   360      1
   363   359   363      1
   364   359   364      1
   365   360   365      1
   366   365   366      1
   367   365   368      1
   368   365   369      1
   369   366   367      1
   370   366   370      1
   371   366   371      1
   372   367   372      1
   373   372   373      1
   374   372   375      1
   375   372   376      1
   376   373   374      1
   377   373   377      1
   378   373   378      1
   379   374   379      1
   380   379   380      1
   381   379   382      1
   382   379   383      1
   383   380   381      1
   384   380   384      1
   385   380   385      1
   386   381   386      1
   387   386   387      1
   388   386   389      1
   389   386   390      1
   390   387   388      1
   391   387   391      1
   392   387   392      1
   393   388   393      1
   394   393   394      1
   395   393   396      1
   396   393   397      1
   397   394   395      1
   398   394   398      1
   399   394   399      1
   400   395   400      1
   401   400   401      1
   402   400   403      1
   403   400   404      1
   404   401   402      1
   405   401   405      1
   406   401   406      1
   407   402   407      1
   408   407   408      1
   409   407   410      1
   410   407   411      1
   411   408   409      1
   412   408   412      1
   413   408   413      1
   414   409   414      1
   415   414   415      1
   416   414   417      1
   417   414   418      1
   418   415   416      1
   419   415   419      1
   420   415   420      1
   421   416   421      1
   422   421   422      1
   423   421   424      1
   424   421   425      1
   425   422   423      1
   426   422   426      1
   427   422   427      1
   428   423   428      1
   429   428   429      1
   430   428   431      1
   431   428   432      1
   432   429   430      1
   433   429   433      1
   434   429   434      1
   435   430   435      1
   436   435   436      1
   437   435   438      1
   438   435   439      1
   439   436   437      1
   440   436   440      1
   441   436   441      1
   442   437   442      1
   443   442   443      1
   444   442   445      1
   445   442   446      1
   446   443   444      1
   447   443   447      1
   448   443   448      1
   449   444   449      1
