###
### Created by PolyChef-cpp17 on Mon May 12 10:39:13 2025
###

@<TRIPOS>MOLECULE
NO_INFO
422 421 1 0 0
SMALL
USER_CHARGES


@<TRIPOS>ATOM
      1 C         218.4530   96.3728   91.5842 C.3       0      M_A    0.0000
      2 C         217.5914   96.6390   92.8150 C.3       0      M_A    0.0000
      3 O         216.5926   97.6168   92.5248 O.3       0      M_A    0.0000
      4 H         217.8473   96.3655   90.6718 H         0      M_A    0.0000
      5 H         219.1899   97.1782   91.4864 H         0      M_A    0.0000
      6 H         217.0741   95.7266   93.1369 H         0      M_A    0.0000
      7 H         218.2224   96.9505   93.6599 H         0      M_A    0.0000
      8 C         217.0497   98.5565   91.5735 C.3       1      M_A    0.0000
      9 C         216.3843   99.9187   91.7464 C.3       1      M_A    0.0000
     10 O         215.3079  100.0708   90.8211 O.3       1      M_A    0.0000
     11 H         216.8797   98.1583   90.5676 H         1      M_A    0.0000
     12 H         218.1317   98.6711   91.7061 H         1      M_A    0.0000
     13 H         215.9677  100.0268   92.7556 H         1      M_A    0.0000
     14 H         217.1270  100.7212   91.6313 H         1      M_A    0.0000
     15 C         214.5619  101.2419   91.0835 C.3       2      M_A    0.0000
     16 C         213.5028  101.4993   90.0158 C.3       2      M_A    0.0000
     17 O         213.5562  102.8559   89.5746 O.3       2      M_A    0.0000
     18 H         215.2485  102.0906   91.1720 H         2      M_A    0.0000
     19 H         214.0652  101.1151   92.0523 H         2      M_A    0.0000
     20 H         213.6671  100.8617   89.1382 H         2      M_A    0.0000
     21 H         212.5054  101.2431   90.4011 H         2      M_A    0.0000
     22 C         213.7389  103.7451   90.6576 C.3       3      M_A    0.0000
     23 C         213.1410  105.1208   90.3780 C.3       3      M_A    0.0000
     24 O         214.0471  105.9139   89.6113 O.3       3      M_A    0.0000
     25 H         214.8080  103.8174   90.8842 H         3      M_A    0.0000
     26 H         213.2425  103.3144   91.5347 H         3      M_A    0.0000
     27 H         212.2111  105.0350   89.8019 H         3      M_A    0.0000
     28 H         212.8746  105.6178   91.3219 H         3      M_A    0.0000
     29 C         213.4651  106.3328   88.3936 C.3       4      M_A    0.0000
     30 C         213.0703  107.8064   88.4229 C.3       4      M_A    0.0000
     31 O         211.8618  108.0154   87.6924 O.3       4      M_A    0.0000
     32 H         212.6014  105.6965   88.1729 H         4      M_A    0.0000
     33 H         214.2023  106.1790   87.5973 H         4      M_A    0.0000
     34 H         212.8953  108.1455   89.4516 H         4      M_A    0.0000
     35 H         213.8883  108.4263   88.0285 H         4      M_A    0.0000
     36 C         212.1066  108.1101   86.3039 C.3       5      M_A    0.0000
     37 C         212.2303  109.5584   85.8401 C.3       5      M_A    0.0000
     38 O         211.1537  109.8978   84.9662 O.3       5      M_A    0.0000
     39 H         211.3087  107.5889   85.7641 H         5      M_A    0.0000
     40 H         213.0465  107.5881   86.0911 H         5      M_A    0.0000
     41 H         212.1915  110.2482   86.6925 H         5      M_A    0.0000
     42 H         213.2043  109.7200   85.3562 H         5      M_A    0.0000
     43 C         210.8754  111.2828   85.0021 C.3       6      M_A    0.0000
     44 C         211.2100  111.9700   83.6815 C.3       6      M_A    0.0000
     45 O         211.9946  113.1403   83.9111 O.3       6      M_A    0.0000
     46 H         211.4247  111.7362   85.8340 H         6      M_A    0.0000
     47 H         209.8054  111.4063   85.2049 H         6      M_A    0.0000
     48 H         211.7926  111.3065   83.0302 H         6      M_A    0.0000
     49 H         210.2872  112.2084   83.1332 H         6      M_A    0.0000
     50 C         212.0128  113.9817   82.7759 C.3       7      M_A    0.0000
     51 C         213.1184  115.0302   82.8560 C.3       7      M_A    0.0000
     52 O         212.6174  116.2440   83.4158 O.3       7      M_A    0.0000
     53 H         211.0299  114.4515   82.6635 H         7      M_A    0.0000
     54 H         212.1829  113.3538   81.8938 H         7      M_A    0.0000
     55 H         213.9393  114.6867   83.4978 H         7      M_A    0.0000
     56 H         213.5543  115.1988   81.8608 H         7      M_A    0.0000
     57 C         213.0862  117.3728   82.7066 C.3       8      M_A    0.0000
     58 C         213.0768  118.6345   83.5645 C.3       8      M_A    0.0000
     59 O         211.8755  119.3757   83.3516 O.3       8      M_A    0.0000
     60 H         212.4805  117.5043   81.8036 H         8      M_A    0.0000
     61 H         214.1149  117.1678   82.3888 H         8      M_A    0.0000
     62 H         213.1234  118.3840   84.6317 H         8      M_A    0.0000
     63 H         213.9663  119.2448   83.3516 H         8      M_A    0.0000
     64 C         211.7598  120.4471   84.2656 C.3       9      M_A    0.0000
     65 C         210.3198  120.9328   84.4018 C.3       9      M_A    0.0000
     66 O         210.2831  122.3503   84.5668 O.3       9      M_A    0.0000
     67 H         212.4228  121.2596   83.9496 H         9      M_A    0.0000
     68 H         212.1093  120.0954   85.2431 H         9      M_A    0.0000
     69 H         209.7375  120.6914   83.5037 H         9      M_A    0.0000
     70 H         209.8238  120.4199   85.2384 H         9      M_A    0.0000
     71 C         210.6402  123.0192   83.3743 C.3      10      M_A    0.0000
     72 C         210.7554  124.5274   83.5745 C.3      10      M_A    0.0000
     73 O         209.5811  125.1863   83.1005 O.3      10      M_A    0.0000
     74 H         209.9077  122.7784   82.5965 H        10      M_A    0.0000
     75 H         211.6111  122.6297   83.0473 H        10      M_A    0.0000
     76 H         210.8645  124.7751   84.6377 H        10      M_A    0.0000
     77 H         211.6573  124.9088   83.0745 H        10      M_A    0.0000
     78 C         208.5023  125.0314   84.0000 C.3      11      M_A    0.0000
     79 C         207.9677  126.3733   84.4918 C.3      11      M_A    0.0000
     80 O         207.6365  126.3021   85.8786 O.3      11      M_A    0.0000
     81 H         208.8228  124.4027   84.8375 H        11      M_A    0.0000
     82 H         207.6996  124.5008   83.4753 H        11      M_A    0.0000
     83 H         208.7204  127.1628   84.3739 H        11      M_A    0.0000
     84 H         207.1010  126.6805   83.8890 H        11      M_A    0.0000
     85 C         206.6453  127.2486   86.2229 C.3      12      M_A    0.0000
     86 C         206.9540  128.6333   85.6613 C.3      12      M_A    0.0000
     87 O         206.8008  129.6291   86.6726 O.3      12      M_A    0.0000
     88 H         206.5425  127.2780   87.3129 H        12      M_A    0.0000
     89 H         205.6911  126.9028   85.8092 H        12      M_A    0.0000
     90 H         207.9884  128.6887   85.2998 H        12      M_A    0.0000
     91 H         206.3121  128.8426   84.7934 H        12      M_A    0.0000
     92 C         206.0646  130.7384   86.1988 C.3      13      M_A    0.0000
     93 C         206.2793  131.9798   87.0596 C.3      13      M_A    0.0000
     94 O         205.0272  132.5104   87.4938 O.3      13      M_A    0.0000
     95 H         205.0040  130.4693   86.1507 H        13      M_A    0.0000
     96 H         206.3987  130.9531   85.1773 H        13      M_A    0.0000
     97 H         206.8631  131.7393   87.9568 H        13      M_A    0.0000
     98 H         206.8608  132.7303   86.5049 H        13      M_A    0.0000
     99 C         204.4288  133.3089   86.4932 C.3      14      M_A    0.0000
    100 C         204.1626  134.7314   86.9767 C.3      14      M_A    0.0000
    101 O         202.8910  135.1871   86.5150 O.3      14      M_A    0.0000
    102 H         203.5051  132.8266   86.1560 H        14      M_A    0.0000
    103 H         205.1137  133.3473   85.6384 H        14      M_A    0.0000
    104 H         204.1499  134.7775   88.0728 H        14      M_A    0.0000
    105 H         204.9706  135.4011   86.6488 H        14      M_A    0.0000
    106 C         202.9185  136.5643   86.1995 C.3      15      M_A    0.0000
    107 C         201.6508  137.2825   86.6526 C.3      15      M_A    0.0000
    108 O         201.1446  138.1120   85.6068 O.3      15      M_A    0.0000
    109 H         203.0752  136.6810   85.1218 H        15      M_A    0.0000
    110 H         203.7800  137.0098   86.7099 H        15      M_A    0.0000
    111 H         200.8636  136.5636   86.9118 H        15      M_A    0.0000
    112 H         201.8495  137.8646   87.5639 H        15      M_A    0.0000
    113 C         201.1669  139.4768   85.9725 C.3      16      M_A    0.0000
    114 C         199.9518  140.2329   85.4433 C.3      16      M_A    0.0000
    115 O         200.3514  141.2183   84.4908 O.3      16      M_A    0.0000
    116 H         202.0991  139.9272   85.6154 H        16      M_A    0.0000
    117 H         201.1699  139.5323   87.0671 H        16      M_A    0.0000
    118 H         199.2549  139.5520   84.9388 H        16      M_A    0.0000
    119 H         199.3938  140.6847   86.2759 H        16      M_A    0.0000
    120 C         199.5733  142.3925   84.6040 C.3      17      M_A    0.0000
    121 C         198.0801  142.0869   84.6769 C.3      17      M_A    0.0000
    122 O         197.4849  142.1875   83.3833 O.3      17      M_A    0.0000
    123 H         199.8006  143.0544   83.7616 H        17      M_A    0.0000
    124 H         199.8747  142.9093   85.5223 H        17      M_A    0.0000
    125 H         197.9055  141.0665   85.0404 H        17      M_A    0.0000
    126 H         197.5899  142.7589   85.3960 H        17      M_A    0.0000
    127 C         198.0462  143.2480   82.6368 C.3      18      M_A    0.0000
    128 C         197.0537  143.8349   81.6375 C.3      18      M_A    0.0000
    129 O         197.6220  143.8680   80.3284 O.3      18      M_A    0.0000
    130 H         198.9504  142.8907   82.1326 H        18      M_A    0.0000
    131 H         198.3472  144.0329   83.3402 H        18      M_A    0.0000
    132 H         196.1428  143.2256   81.5848 H        18      M_A    0.0000
    133 H         196.7367  144.8367   81.9612 H        18      M_A    0.0000
    134 C         196.8916  144.7192   79.4688 C.3      19      M_A    0.0000
    135 C         195.3896  144.4624   79.5470 C.3      19      M_A    0.0000
    136 O         194.7022  145.2021   78.5379 O.3      19      M_A    0.0000
    137 H         197.2610  144.5957   78.4451 H        19      M_A    0.0000
    138 H         197.0906  145.7540   79.7703 H        19      M_A    0.0000
    139 H         195.1640  143.4007   79.3872 H        19      M_A    0.0000
    140 H         195.0139  144.7103   80.5502 H        19      M_A    0.0000
    141 C         194.3954  146.5106   78.9743 C.3      20      M_A    0.0000
    142 C         192.8922  146.7315   79.1144 C.3      20      M_A    0.0000
    143 O         192.3483  147.2560   77.9032 O.3      20      M_A    0.0000
    144 H         194.8378  147.2321   78.2792 H        20      M_A    0.0000
    145 H         194.8682  146.6594   79.9519 H        20      M_A    0.0000
    146 H         192.3746  145.7872   79.3251 H        20      M_A    0.0000
    147 H         192.6838  147.3945   79.9664 H        20      M_A    0.0000
    148 C         191.3426  146.4125   77.3799 C.3      21      M_A    0.0000
    149 C         190.2748  147.1947   76.6210 C.3      21      M_A    0.0000
    150 O         188.9895  146.6044   76.8147 O.3      21      M_A    0.0000
    151 H         190.9015  145.8325   78.1976 H        21      M_A    0.0000
    152 H         191.8201  145.7053   76.6920 H        21      M_A    0.0000
    153 H         190.2180  148.2303   76.9789 H        21      M_A    0.0000
    154 H         190.5323  147.2508   75.5535 H        21      M_A    0.0000
    155 C         188.0586  147.0664   75.8571 C.3      22      M_A    0.0000
    156 C         186.7344  146.3120   75.9333 C.3      22      M_A    0.0000
    157 O         186.5470  145.5110   74.7666 O.3      22      M_A    0.0000
    158 H         188.5026  146.9859   74.8592 H        22      M_A    0.0000
    159 H         187.8731  148.1288   76.0527 H        22      M_A    0.0000
    160 H         186.7149  145.6396   76.8000 H        22      M_A    0.0000
    161 H         185.9029  147.0180   76.0714 H        22      M_A    0.0000
    162 C         185.1912  145.1496   74.5996 C.3      23      M_A    0.0000
    163 C         184.6412  144.4070   75.8138 C.3      23      M_A    0.0000
    164 O         183.4909  143.6421   75.4538 O.3      23      M_A    0.0000
    165 H         185.0911  144.5483   73.6897 H        23      M_A    0.0000
    166 H         184.6128  146.0692   74.4545 H        23      M_A    0.0000
    167 H         185.3858  143.7100   76.2182 H        23      M_A    0.0000
    168 H         184.4124  145.1172   76.6214 H        23      M_A    0.0000
    169 C         182.7687  144.2561   74.4058 C.3      24      M_A    0.0000
    170 C         182.3945  145.6983   74.7344 C.3      24      M_A    0.0000
    171 O         180.9796  145.8757   74.6683 O.3      24      M_A    0.0000
    172 H         181.8786  143.6569   74.1863 H        24      M_A    0.0000
    173 H         183.4018  144.2491   73.5111 H        24      M_A    0.0000
    174 H         182.7119  145.9645   75.7503 H        24      M_A    0.0000
    175 H         182.9163  146.3895   74.0569 H        24      M_A    0.0000
    176 C         180.6363  147.2359   74.4978 C.3      25      M_A    0.0000
    177 C         179.6241  147.7073   75.5378 C.3      25      M_A    0.0000
    178 O         178.5536  148.4131   74.9104 O.3      25      M_A    0.0000
    179 H         180.2566  147.3839   73.4813 H        25      M_A    0.0000
    180 H         181.5518  147.8298   74.5995 H        25      M_A    0.0000
    181 H         179.1866  146.8558   76.0739 H        25      M_A    0.0000
    182 H         180.1213  148.3278   76.2972 H        25      M_A    0.0000
    183 C         178.3123  149.6541   75.5415 C.3      26      M_A    0.0000
    184 C         176.9004  150.1683   75.2759 C.3      26      M_A    0.0000
    185 O         176.9324  151.2769   74.3770 O.3      26      M_A    0.0000
    186 H         179.0652  150.3766   75.2089 H        26      M_A    0.0000
    187 H         178.4413  149.5141   76.6208 H        26      M_A    0.0000
    188 H         176.2793  149.3899   74.8154 H        26      M_A    0.0000
    189 H         176.4094  150.4353   76.2227 H        26      M_A    0.0000
    190 C         175.9484  152.2368   74.7045 C.3      27      M_A    0.0000
    191 C         175.4708  153.0105   73.4791 C.3      27      M_A    0.0000
    192 O         176.0172  154.3293   73.4757 O.3      27      M_A    0.0000
    193 H         176.3486  152.9128   75.4676 H        27      M_A    0.0000
    194 H         175.0952  151.7081   75.1447 H        27      M_A    0.0000
    195 H         175.7945  152.5184   72.5535 H        27      M_A    0.0000
    196 H         174.3720  153.0328   73.4489 H        27      M_A    0.0000
    197 C         175.2824  155.1913   72.6307 C.3      28      M_A    0.0000
    198 C         175.2936  154.7197   71.1796 C.3      28      M_A    0.0000
    199 O         175.6551  155.7908   70.3080 O.3      28      M_A    0.0000
    200 H         175.6839  156.2064   72.7195 H        28      M_A    0.0000
    201 H         174.2468  155.2120   72.9888 H        28      M_A    0.0000
    202 H         176.0261  153.9159   71.0337 H        28      M_A    0.0000
    203 H         174.3147  154.2978   70.9101 H        28      M_A    0.0000
    204 C         175.6347  155.3855   68.9544 C.3      29      M_A    0.0000
    205 C         174.6989  156.2467   68.1113 C.3      29      M_A    0.0000
    206 O         173.9644  155.4368   67.1935 O.3      29      M_A    0.0000
    207 H         175.3534  154.3284   68.9021 H        29      M_A    0.0000
    208 H         176.6531  155.4775   68.5597 H        29      M_A    0.0000
    209 H         173.9706  156.7698   68.7435 H        29      M_A    0.0000
    210 H         175.2699  157.0270   67.5877 H        29      M_A    0.0000
    211 C         172.9082  156.1605   66.5956 C.3      30      M_A    0.0000
    212 C         173.0982  156.3148   65.0895 C.3      30      M_A    0.0000
    213 O         172.7970  157.6490   64.6812 O.3      30      M_A    0.0000
    214 H         172.8217  157.1364   67.0851 H        30      M_A    0.0000
    215 H         171.9771  155.6129   66.7813 H        30      M_A    0.0000
    216 H         174.1370  156.1097   64.8019 H        30      M_A    0.0000
    217 H         172.4787  155.5826   64.5519 H        30      M_A    0.0000
    218 C         173.1800  157.8785   63.3404 C.3      31      M_A    0.0000
    219 C         172.6862  159.2271   62.8251 C.3      31      M_A    0.0000
    220 O         172.4724  159.1760   61.4146 O.3      31      M_A    0.0000
    221 H         172.8095  157.0575   62.7174 H        31      M_A    0.0000
    222 H         174.2750  157.8610   63.2950 H        31      M_A    0.0000
    223 H         171.7319  159.5004   63.2923 H        31      M_A    0.0000
    224 H         173.3994  160.0200   63.0929 H        31      M_A    0.0000
    225 C         172.3712  160.4716   60.8595 C.3      32      M_A    0.0000
    226 C         172.5819  160.4668   59.3483 C.3      32      M_A    0.0000
    227 O         173.9690  160.3379   59.0368 O.3      32      M_A    0.0000
    228 H         173.0908  161.1307   61.3569 H        32      M_A    0.0000
    229 H         171.3670  160.8536   61.0763 H        32      M_A    0.0000
    230 H         172.0605  159.6216   58.8819 H        32      M_A    0.0000
    231 H         172.1549  161.3768   58.9027 H        32      M_A    0.0000
    232 C         174.4923  159.1114   59.5044 C.3      33      M_A    0.0000
    233 C         175.4453  158.4728   58.4983 C.3      33      M_A    0.0000
    234 O         175.2991  157.0528   58.5021 O.3      33      M_A    0.0000
    235 H         173.6630  158.4379   59.7458 H        33      M_A    0.0000
    236 H         175.0388  159.3105   60.4333 H        33      M_A    0.0000
    237 H         175.2329  158.8221   57.4801 H        33      M_A    0.0000
    238 H         176.4815  158.7688   58.7164 H        33      M_A    0.0000
    239 C         175.8367  156.4743   57.3302 C.3      34      M_A    0.0000
    240 C         177.0459  155.5926   57.6278 C.3      34      M_A    0.0000
    241 O         177.9761  155.6371   56.5459 O.3      34      M_A    0.0000
    242 H         176.0927  157.2710   56.6236 H        34      M_A    0.0000
    243 H         175.0551  155.8602   56.8685 H        34      M_A    0.0000
    244 H         177.5713  155.9373   58.5272 H        34      M_A    0.0000
    245 H         176.7225  154.5623   57.8350 H        34      M_A    0.0000
    246 C         179.0960  154.8112   56.7923 C.3      35      M_A    0.0000
    247 C         179.2162  153.6863   55.7684 C.3      35      M_A    0.0000
    248 O         179.2006  152.4150   56.4176 O.3      35      M_A    0.0000
    249 H         179.0295  154.4135   57.8106 H        35      M_A    0.0000
    250 H         179.9943  155.4368   56.7389 H        35      M_A    0.0000
    251 H         178.3757  153.7056   55.0635 H        35      M_A    0.0000
    252 H         180.1270  153.8168   55.1665 H        35      M_A    0.0000
    253 C         180.0000  151.4737   55.7308 C.3      36      M_A    0.0000
    254 C         179.2988  150.9180   54.4948 C.3      36      M_A    0.0000
    255 O         178.4598  149.8182   54.8475 O.3      36      M_A    0.0000
    256 H         180.2795  150.6708   56.4212 H        36      M_A    0.0000
    257 H         180.9216  151.9783   55.4187 H        36      M_A    0.0000
    258 H         178.6623  151.6804   54.0285 H        36      M_A    0.0000
    259 H         180.0399  150.6283   53.7361 H        36      M_A    0.0000
    260 C         177.6344  149.4304   53.7681 C.3      37      M_A    0.0000
    261 C         176.5502  150.4630   53.4744 C.3      37      M_A    0.0000
    262 O         175.3487  149.8201   53.0492 O.3      37      M_A    0.0000
    263 H         177.1977  148.4500   53.9864 H        37      M_A    0.0000
    264 H         178.2689  149.3205   52.8812 H        37      M_A    0.0000
    265 H         176.3105  151.0467   54.3720 H        37      M_A    0.0000
    266 H         176.9056  151.1834   52.7236 H        37      M_A    0.0000
    267 C         175.5568  149.0576   51.8778 C.3      38      M_A    0.0000
    268 C         174.4448  148.0376   51.6515 C.3      38      M_A    0.0000
    269 O         174.6657  147.3170   50.4392 O.3      38      M_A    0.0000
    270 H         176.5351  148.5689   51.9386 H        38      M_A    0.0000
    271 H         175.5834  149.7478   51.0267 H        38      M_A    0.0000
    272 H         174.4120  147.3051   52.4678 H        38      M_A    0.0000
    273 H         173.4659  148.5382   51.6464 H        38      M_A    0.0000
    274 C         173.8903  146.1366   50.3905 C.3      39      M_A    0.0000
    275 C         173.0683  146.0421   49.1085 C.3      39      M_A    0.0000
    276 O         171.9780  145.1365   49.2787 O.3      39      M_A    0.0000
    277 H         173.2475  146.0945   51.2762 H        39      M_A    0.0000
    278 H         174.5746  145.2817   50.4367 H        39      M_A    0.0000
    279 H         172.6456  147.0185   48.8404 H        39      M_A    0.0000
    280 H         173.7099  145.7420   48.2676 H        39      M_A    0.0000
    281 C         171.7230  144.4059   48.0963 C.3      40      M_A    0.0000
    282 C         171.4721  142.9274   48.3777 C.3      40      M_A    0.0000
    283 O         171.7405  142.1440   47.2150 O.3      40      M_A    0.0000
    284 H         172.5623  144.5399   47.4055 H        40      M_A    0.0000
    285 H         170.8319  144.8327   47.6220 H        40      M_A    0.0000
    286 H         172.1286  142.5632   49.1779 H        40      M_A    0.0000
    287 H         170.4419  142.7779   48.7316 H        40      M_A    0.0000
    288 C         170.9323  142.5411   46.1259 C.3      41      M_A    0.0000
    289 C         170.7167  141.4075   45.1276 C.3      41      M_A    0.0000
    290 O         171.6322  141.5192   44.0381 O.3      41      M_A    0.0000
    291 H         171.3869  143.4124   45.6425 H        41      M_A    0.0000
    292 H         169.9598  142.8528   46.5240 H        41      M_A    0.0000
    293 H         170.8851  140.4315   45.5995 H        41      M_A    0.0000
    294 H         169.6749  141.4047   44.7758 H        41      M_A    0.0000
    295 C         171.7008  140.3192   43.2950 C.3      42      M_A    0.0000
    296 C         172.9603  140.2465   42.4367 C.3      42      M_A    0.0000
    297 O         172.6191  140.1752   41.0524 O.3      42      M_A    0.0000
    298 H         170.7984  140.2268   42.6813 H        42      M_A    0.0000
    299 H         171.7063  139.4835   44.0042 H        42      M_A    0.0000
    300 H         173.5825  141.1394   42.5762 H        42      M_A    0.0000
    301 H         173.5779  139.3893   42.7410 H        42      M_A    0.0000
    302 C         173.7160  139.7477   40.2707 C.3      43      M_A    0.0000
    303 C         174.0242  140.7182   39.1344 C.3      43      M_A    0.0000
    304 O         173.8855  140.0693   37.8705 O.3      43      M_A    0.0000
    305 H         173.5114  138.7424   39.8874 H        43      M_A    0.0000
    306 H         174.5914  139.6804   40.9268 H        43      M_A    0.0000
    307 H         173.3306  141.5683   39.1451 H        43      M_A    0.0000
    308 H         175.0318  141.1404   39.2587 H        43      M_A    0.0000
    309 C         173.7115  141.0043   36.8254 C.3      44      M_A    0.0000
    310 C         174.8336  140.9283   35.7942 C.3      44      M_A    0.0000
    311 O         175.7814  141.9742   36.0080 O.3      44      M_A    0.0000
    312 H         173.6359  142.0094   37.2539 H        44      M_A    0.0000
    313 H         172.7592  140.7827   36.3300 H        44      M_A    0.0000
    314 H         175.3728  139.9758   35.8703 H        44      M_A    0.0000
    315 H         174.4177  140.9672   34.7772 H        44      M_A    0.0000
    316 C         177.0096  141.6984   35.3658 C.3      45      M_A    0.0000
    317 C         178.1824  142.4002   36.0440 C.3      45      M_A    0.0000
    318 O         179.2023  142.7034   35.0922 O.3      45      M_A    0.0000
    319 H         176.9337  141.9847   34.3113 H        45      M_A    0.0000
    320 H         177.1741  140.6154   35.4041 H        45      M_A    0.0000
    321 H         177.8642  143.3472   36.4975 H        45      M_A    0.0000
    322 H         178.5725  141.7807   36.8644 H        45      M_A    0.0000
    323 C         179.2479  141.7409   34.0586 C.3      46      M_A    0.0000
    324 C         180.6663  141.2398   33.8029 C.3      46      M_A    0.0000
    325 O         181.3215  142.0629   32.8381 O.3      46      M_A    0.0000
    326 H         178.8107  142.1703   33.1509 H        46      M_A    0.0000
    327 H         178.6213  140.8934   34.3594 H        46      M_A    0.0000
    328 H         181.2650  141.2704   34.7218 H        46      M_A    0.0000
    329 H         180.6452  140.1880   33.4831 H        46      M_A    0.0000
    330 C         182.7272  141.9537   32.9344 C.3      47      M_A    0.0000
    331 C         183.3943  143.3077   33.1576 C.3      47      M_A    0.0000
    332 O         183.9323  143.8083   31.9338 O.3      47      M_A    0.0000
    333 H         183.1106  141.4683   32.0306 H        47      M_A    0.0000
    334 H         182.9570  141.3008   33.7842 H        47      M_A    0.0000
    335 H         182.6706  144.0461   33.5248 H        47      M_A    0.0000
    336 H         184.1708  143.2251   33.9316 H        47      M_A    0.0000
    337 C         185.1923  143.2350   31.6498 C.3      48      M_A    0.0000
    338 C         186.1859  144.2654   31.1212 C.3      48      M_A    0.0000
    339 O         186.2153  144.2460   29.6941 O.3      48      M_A    0.0000
    340 H         185.0588  142.4133   30.9382 H        48      M_A    0.0000
    341 H         185.5854  142.8079   32.5795 H        48      M_A    0.0000
    342 H         185.9019  145.2791   31.4302 H        48      M_A    0.0000
    343 H         187.1840  144.0819   31.5443 H        48      M_A    0.0000
    344 C         187.3812  144.8670   29.1924 C.3      49      M_A    0.0000
    345 C         187.0566  146.0016   28.2252 C.3      49      M_A    0.0000
    346 O         187.8893  145.9265   27.0682 O.3      49      M_A    0.0000
    347 H         188.0126  144.1096   28.7156 H        49      M_A    0.0000
    348 H         187.9385  145.2751   30.0434 H        49      M_A    0.0000
    349 H         186.0152  145.9414   27.8849 H        49      M_A    0.0000
    350 H         187.1606  146.9725   28.7305 H        49      M_A    0.0000
    351 C         187.4853  146.8516   26.0793 C.3      50      M_A    0.0000
    352 C         186.1517  146.4680   25.4448 C.3      50      M_A    0.0000
    353 O         186.0707  146.9670   24.1098 O.3      50      M_A    0.0000
    354 H         188.2736  146.9337   25.3234 H        50      M_A    0.0000
    355 H         187.3813  147.8323   26.5576 H        50      M_A    0.0000
    356 H         186.0397  145.3777   25.3954 H        50      M_A    0.0000
    357 H         185.3186  146.8364   26.0606 H        50      M_A    0.0000
    358 C         186.0891  148.3798   24.0836 C.3      51      M_A    0.0000
    359 C         186.0411  148.9283   22.6606 C.3      51      M_A    0.0000
    360 O         187.2442  149.6332   22.3551 O.3      51      M_A    0.0000
    361 H         186.9786  148.7354   24.6146 H        51      M_A    0.0000
    362 H         185.2104  148.7384   24.6317 H        51      M_A    0.0000
    363 H         185.9417  148.1160   21.9299 H        51      M_A    0.0000
    364 H         185.1577  149.5700   22.5309 H        51      M_A    0.0000
    365 C         187.5563  149.5518   20.9793 C.3      52      M_A    0.0000
    366 C         187.3434  150.8819   20.2626 C.3      52      M_A    0.0000
    367 O         186.5634  150.6949   19.0817 O.3      52      M_A    0.0000
    368 H         186.9567  148.7567   20.5234 H        52      M_A    0.0000
    369 H         188.6103  149.2652   20.8892 H        52      M_A    0.0000
    370 H         186.8048  151.5912   20.9032 H        52      M_A    0.0000
    371 H         188.3122  151.3481   20.0322 H        52      M_A    0.0000
    372 C         186.3135  151.9221   18.4272 C.3      53      M_A    0.0000
    373 C         185.6026  151.7260   17.0914 C.3      53      M_A    0.0000
    374 O         186.0154  152.7204   16.1541 O.3      53      M_A    0.0000
    375 H         187.2604  152.4566   18.2963 H        53      M_A    0.0000
    376 H         185.6777  152.5296   19.0814 H        53      M_A    0.0000
    377 H         185.8429  150.7468   16.6588 H        53      M_A    0.0000
    378 H         184.5126  151.7406   17.2359 H        53      M_A    0.0000
    379 C         185.1533  152.7663   15.0354 C.3      54      M_A    0.0000
    380 C         185.6819  153.6883   13.9406 C.3      54      M_A    0.0000
    381 O         184.7913  154.7852   13.7368 O.3      54      M_A    0.0000
    382 H         184.1559  153.0758   15.3653 H        54      M_A    0.0000
    383 H         185.0688  151.7502   14.6330 H        54      M_A    0.0000
    384 H         186.6587  154.1051   14.2161 H        54      M_A    0.0000
    385 H         185.8388  153.1225   13.0109 H        54      M_A    0.0000
    386 C         184.9794  155.3750   12.4665 C.3      55      M_A    0.0000
    387 C         186.4491  155.6715   12.1831 C.3      55      M_A    0.0000
    388 O         186.5853  156.9164   11.4979 O.3      55      M_A    0.0000
    389 H         184.3729  156.2847   12.4015 H        55      M_A    0.0000
    390 H         184.6071  154.6738   11.7109 H        55      M_A    0.0000
    391 H         187.0216  155.7457   13.1160 H        55      M_A    0.0000
    392 H         186.8986  154.8481   11.6096 H        55      M_A    0.0000
    393 C         187.8634  157.0455   10.9089 C.3      56      M_A    0.0000
    394 C         188.1301  158.4665   10.4215 C.3      56      M_A    0.0000
    395 O         188.9574  158.4495    9.2581 O.3      56      M_A    0.0000
    396 H         187.9544  156.3232   10.0907 H        56      M_A    0.0000
    397 H         188.6113  156.7842   11.6663 H        56      M_A    0.0000
    398 H         187.1940  158.9711   10.1515 H        56      M_A    0.0000
    399 H         188.5827  159.0648   11.2253 H        56      M_A    0.0000
    400 C         189.8780  159.5216    9.2625 C.3      57      M_A    0.0000
    401 C         191.1834  159.1602    8.5600 C.3      57      M_A    0.0000
    402 O         192.2832  159.2615    9.4645 O.3      57      M_A    0.0000
    403 H         190.0588  159.8332   10.2967 H        57      M_A    0.0000
    404 H         189.4150  160.3654    8.7382 H        57      M_A    0.0000
    405 H         191.1570  158.1279    8.1892 H        57      M_A    0.0000
    406 H         191.3301  159.8011    7.6787 H        57      M_A    0.0000
    407 C         193.4888  159.5431    8.7833 C.3      58      M_A    0.0000
    408 C         194.5016  158.4096    8.9161 C.3      58      M_A    0.0000
    409 O         195.8206  158.9327    9.0721 O.3      58      M_A    0.0000
    410 H         193.8996  160.4863    9.1590 H        58      M_A    0.0000
    411 H         193.2516  159.6841    7.7226 H        58      M_A    0.0000
    412 H         194.2866  157.7923    9.7974 H        58      M_A    0.0000
    413 H         194.4374  157.7395    8.0468 H        58      M_A    0.0000
    414 C         195.8668  160.3146    8.7806 C.3      59      M_A    0.0000
    415 C         194.6740  160.7647    7.9422 C.3      59      M_A    0.0000
    416 O         194.2268  162.0544    8.3600 O.3      59      M_A    0.0000
    417 H         196.8124  160.5422    8.2770 H        59      M_A    0.0000
    418 H         195.8579  160.8600    9.7313 H        59      M_A    0.0000
    419 H         194.9453  160.8387    6.8817 H        59      M_A    0.0000
    420 H         193.8656  160.0220    8.0031 H        59      M_A    0.0000
    421 H         193.5120  161.9874    9.0271 H        59      M_A    0.0000
    422 H         218.9949   95.4300   91.6590 H         0      M_A    0.0000
@<TRIPOS>BOND
     1     1     2      1
     2     1     4      1
     3     1     5      1
     4     1   422      1
     5     2     3      1
     6     2     6      1
     7     2     7      1
     8     3     8      1
     9     8     9      1
    10     8    11      1
    11     8    12      1
    12     9    10      1
    13     9    13      1
    14     9    14      1
    15    10    15      1
    16    15    16      1
    17    15    18      1
    18    15    19      1
    19    16    17      1
    20    16    20      1
    21    16    21      1
    22    17    22      1
    23    22    23      1
    24    22    25      1
    25    22    26      1
    26    23    24      1
    27    23    27      1
    28    23    28      1
    29    24    29      1
    30    29    30      1
    31    29    32      1
    32    29    33      1
    33    30    31      1
    34    30    34      1
    35    30    35      1
    36    31    36      1
    37    36    37      1
    38    36    39      1
    39    36    40      1
    40    37    38      1
    41    37    41      1
    42    37    42      1
    43    38    43      1
    44    43    44      1
    45    43    46      1
    46    43    47      1
    47    44    45      1
    48    44    48      1
    49    44    49      1
    50    45    50      1
    51    50    51      1
    52    50    53      1
    53    50    54      1
    54    51    52      1
    55    51    55      1
    56    51    56      1
    57    52    57      1
    58    57    58      1
    59    57    60      1
    60    57    61      1
    61    58    59      1
    62    58    62      1
    63    58    63      1
    64    59    64      1
    65    64    65      1
    66    64    67      1
    67    64    68      1
    68    65    66      1
    69    65    69      1
    70    65    70      1
    71    66    71      1
    72    71    72      1
    73    71    74      1
    74    71    75      1
    75    72    73      1
    76    72    76      1
    77    72    77      1
    78    73    78      1
    79    78    79      1
    80    78    81      1
    81    78    82      1
    82    79    80      1
    83    79    83      1
    84    79    84      1
    85    80    85      1
    86    85    86      1
    87    85    88      1
    88    85    89      1
    89    86    87      1
    90    86    90      1
    91    86    91      1
    92    87    92      1
    93    92    93      1
    94    92    95      1
    95    92    96      1
    96    93    94      1
    97    93    97      1
    98    93    98      1
    99    94    99      1
   100    99   100      1
   101    99   102      1
   102    99   103      1
   103   100   101      1
   104   100   104      1
   105   100   105      1
   106   101   106      1
   107   106   107      1
   108   106   109      1
   109   106   110      1
   110   107   108      1
   111   107   111      1
   112   107   112      1
   113   108   113      1
   114   113   114      1
   115   113   116      1
   116   113   117      1
   117   114   115      1
   118   114   118      1
   119   114   119      1
   120   115   120      1
   121   120   121      1
   122   120   123      1
   123   120   124      1
   124   121   122      1
   125   121   125      1
   126   121   126      1
   127   122   127      1
   128   127   128      1
   129   127   130      1
   130   127   131      1
   131   128   129      1
   132   128   132      1
   133   128   133      1
   134   129   134      1
   135   134   135      1
   136   134   137      1
   137   134   138      1
   138   135   136      1
   139   135   139      1
   140   135   140      1
   141   136   141      1
   142   141   142      1
   143   141   144      1
   144   141   145      1
   145   142   143      1
   146   142   146      1
   147   142   147      1
   148   143   148      1
   149   148   149      1
   150   148   151      1
   151   148   152      1
   152   149   150      1
   153   149   153      1
   154   149   154      1
   155   150   155      1
   156   155   156      1
   157   155   158      1
   158   155   159      1
   159   156   157      1
   160   156   160      1
   161   156   161      1
   162   157   162      1
   163   162   163      1
   164   162   165      1
   165   162   166      1
   166   163   164      1
   167   163   167      1
   168   163   168      1
   169   164   169      1
   170   169   170      1
   171   169   172      1
   172   169   173      1
   173   170   171      1
   174   170   174      1
   175   170   175      1
   176   171   176      1
   177   176   177      1
   178   176   179      1
   179   176   180      1
   180   177   178      1
   181   177   181      1
   182   177   182      1
   183   178   183      1
   184   183   184      1
   185   183   186      1
   186   183   187      1
   187   184   185      1
   188   184   188      1
   189   184   189      1
   190   185   190      1
   191   190   191      1
   192   190   193      1
   193   190   194      1
   194   191   192      1
   195   191   195      1
   196   191   196      1
   197   192   197      1
   198   197   198      1
   199   197   200      1
   200   197   201      1
   201   198   199      1
   202   198   202      1
   203   198   203      1
   204   199   204      1
   205   204   205      1
   206   204   207      1
   207   204   208      1
   208   205   206      1
   209   205   209      1
   210   205   210      1
   211   206   211      1
   212   211   212      1
   213   211   214      1
   214   211   215      1
   215   212   213      1
   216   212   216      1
   217   212   217      1
   218   213   218      1
   219   218   219      1
   220   218   221      1
   221   218   222      1
   222   219   220      1
   223   219   223      1
   224   219   224      1
   225   220   225      1
   226   225   226      1
   227   225   228      1
   228   225   229      1
   229   226   227      1
   230   226   230      1
   231   226   231      1
   232   227   232      1
   233   232   233      1
   234   232   235      1
   235   232   236      1
   236   233   234      1
   237   233   237      1
   238   233   238      1
   239   234   239      1
   240   239   240      1
   241   239   242      1
   242   239   243      1
   243   240   241      1
   244   240   244      1
   245   240   245      1
   246   241   246      1
   247   246   247      1
   248   246   249      1
   249   246   250      1
   250   247   248      1
   251   247   251      1
   252   247   252      1
   253   248   253      1
   254   253   254      1
   255   253   256      1
   256   253   257      1
   257   254   255      1
   258   254   258      1
   259   254   259      1
   260   255   260      1
   261   260   261      1
   262   260   263      1
   263   260   264      1
   264   261   262      1
   265   261   265      1
   266   261   266      1
   267   262   267      1
   268   267   268      1
   269   267   270      1
   270   267   271      1
   271   268   269      1
   272   268   272      1
   273   268   273      1
   274   269   274      1
   275   274   275      1
   276   274   277      1
   277   274   278      1
   278   275   276      1
   279   275   279      1
   280   275   280      1
   281   276   281      1
   282   281   282      1
   283   281   284      1
   284   281   285      1
   285   282   283      1
   286   282   286      1
   287   282   287      1
   288   283   288      1
   289   288   289      1
   290   288   291      1
   291   288   292      1
   292   289   290      1
   293   289   293      1
   294   289   294      1
   295   290   295      1
   296   295   296      1
   297   295   298      1
   298   295   299      1
   299   296   297      1
   300   296   300      1
   301   296   301      1
   302   297   302      1
   303   302   303      1
   304   302   305      1
   305   302   306      1
   306   303   304      1
   307   303   307      1
   308   303   308      1
   309   304   309      1
   310   309   310      1
   311   309   312      1
   312   309   313      1
   313   310   311      1
   314   310   314      1
   315   310   315      1
   316   311   316      1
   317   316   317      1
   318   316   319      1
   319   316   320      1
   320   317   318      1
   321   317   321      1
   322   317   322      1
   323   318   323      1
   324   323   324      1
   325   323   326      1
   326   323   327      1
   327   324   325      1
   328   324   328      1
   329   324   329      1
   330   325   330      1
   331   330   331      1
   332   330   333      1
   333   330   334      1
   334   331   332      1
   335   331   335      1
   336   331   336      1
   337   332   337      1
   338   337   338      1
   339   337   340      1
   340   337   341      1
   341   338   339      1
   342   338   342      1
   343   338   343      1
   344   339   344      1
   345   344   345      1
   346   344   347      1
   347   344   348      1
   348   345   346      1
   349   345   349      1
   350   345   350      1
   351   346   351      1
   352   351   352      1
   353   351   354      1
   354   351   355      1
   355   352   353      1
   356   352   356      1
   357   352   357      1
   358   353   358      1
   359   358   359      1
   360   358   361      1
   361   358   362      1
   362   359   360      1
   363   359   363      1
   364   359   364      1
   365   360   365      1
   366   365   366      1
   367   365   368      1
   368   365   369      1
   369   366   367      1
   370   366   370      1
   371   366   371      1
   372   367   372      1
   373   372   373      1
   374   372   375      1
   375   372   376      1
   376   373   374      1
   377   373   377      1
   378   373   378      1
   379   374   379      1
   380   379   380      1
   381   379   382      1
   382   379   383      1
   383   380   381      1
   384   380   384      1
   385   380   385      1
   386   381   386      1
   387   386   387      1
   388   386   389      1
   389   386   390      1
   390   387   388      1
   391   387   391      1
   392   387   392      1
   393   388   393      1
   394   393   394      1
   395   393   396      1
   396   393   397      1
   397   394   395      1
   398   394   398      1
   399   394   399      1
   400   395   400      1
   401   400   401      1
   402   400   403      1
   403   400   404      1
   404   401   402      1
   405   401   405      1
   406   401   406      1
   407   402   407      1
   408   407   408      1
   409   407   410      1
   410   407   411      1
   411   408   409      1
   412   408   412      1
   413   408   413      1
   414   409   414      1
   415   414   415      1
   416   414   417      1
   417   414   418      1
   418   415   416      1
   419   415   419      1
   420   415   420      1
   421   416   421      1
